gem5 Simulator System.  http://gem5.org
gem5 is copyrighted software; use the --copyright option for details.

gem5 compiled Jun 18 2013 16:16:15
gem5 started Jun 18 2013 16:16:37
gem5 executing on fede-mac
command line: ./build/ALPHA_MESI_CMP_directory/gem5.opt configs/example/se_alpha_ruby_loop.py --cpu-type=detailed --num-cpus=16 --cmd tests/test-progs/hello/bin/alpha/linux/hello;tests/test-progs/hello/bin/alpha/linux/hello;tests/test-progs/hello/bin/alpha/linux/hello;tests/test-progs/hello/bin/alpha/linux/hello;tests/test-progs/hello/bin/alpha/linux/hello;tests/test-progs/hello/bin/alpha/linux/hello;tests/test-progs/hello/bin/alpha/linux/hello;tests/test-progs/hello/bin/alpha/linux/hello;tests/test-progs/hello/bin/alpha/linux/hello;tests/test-progs/hello/bin/alpha/linux/hello;tests/test-progs/hello/bin/alpha/linux/hello;tests/test-progs/hello/bin/alpha/linux/hello;tests/test-progs/hello/bin/alpha/linux/hello;tests/test-progs/hello/bin/alpha/linux/hello;tests/test-progs/hello/bin/alpha/linux/hello;tests/test-progs/hello/bin/alpha/linux/hello --caches --l2cache --num-dirs=4 --num-l2caches=16 --ruby --topology MeshDirCorners --mesh-rows 4 --garnet-network fixed --internal-sampling-freq=1ps --router-frequency=1GHz --clock=1GHz
warning: add_child('cls'): child 'credit_links0 credit_links1' already has parent
warning: add_child('cls'): child 'credit_links0 credit_links1' already has parent
warning: add_child('cls'): child 'credit_links0 credit_links1' already has parent
warning: add_child('cls'): child 'credit_links0 credit_links1' already has parent
warning: add_child('cls'): child 'credit_links0 credit_links1' already has parent
warning: add_child('cls'): child 'credit_links0 credit_links1' already has parent
warning: add_child('cls'): child 'credit_links0 credit_links1' already has parent
warning: add_child('cls'): child 'credit_links0 credit_links1' already has parent
warning: add_child('cls'): child 'credit_links0 credit_links1' already has parent
warning: add_child('cls'): child 'credit_links0 credit_links1' already has parent
warning: add_child('cls'): child 'credit_links0 credit_links1' already has parent
warning: add_child('cls'): child 'credit_links0 credit_links1' already has parent
warning: add_child('cls'): child 'credit_links0 credit_links1' already has parent
warning: add_child('cls'): child 'credit_links0 credit_links1' already has parent
warning: add_child('cls'): child 'credit_links0 credit_links1' already has parent
warning: add_child('cls'): child 'credit_links0 credit_links1' already has parent
warning: add_child('cls'): child 'credit_links0 credit_links1' already has parent
warning: add_child('cls'): child 'credit_links0 credit_links1' already has parent
warning: add_child('cls'): child 'credit_links0 credit_links1' already has parent
warning: add_child('cls'): child 'credit_links0 credit_links1' already has parent
warning: add_child('cls'): child 'credit_links0 credit_links1' already has parent
warning: add_child('cls'): child 'credit_links0 credit_links1' already has parent
warning: add_child('cls'): child 'credit_links0 credit_links1' already has parent
warning: add_child('cls'): child 'credit_links0 credit_links1' already has parent
warning: add_child('cls'): child 'credit_links0 credit_links1' already has parent
warning: add_child('cls'): child 'credit_links0 credit_links1' already has parent
warning: add_child('cls'): child 'credit_links0 credit_links1' already has parent
warning: add_child('cls'): child 'credit_links0 credit_links1' already has parent
warning: add_child('cls'): child 'credit_links0 credit_links1' already has parent
warning: add_child('cls'): child 'credit_links0 credit_links1' already has parent
warning: add_child('cls'): child 'credit_links0 credit_links1' already has parent
warning: add_child('cls'): child 'credit_links0 credit_links1' already has parent
warning: add_child('cls'): child 'credit_links0 credit_links1' already has parent
warning: add_child('cls'): child 'credit_links0 credit_links1' already has parent
warning: add_child('cls'): child 'credit_links0 credit_links1' already has parent
warning: add_child('cls'): child 'credit_links0 credit_links1' already has parent
warning: add_child('cls'): child 'credit_links0 credit_links1' already has parent
warning: add_child('cls'): child 'credit_links0 credit_links1' already has parent
warning: add_child('cls'): child 'credit_links0 credit_links1' already has parent
warning: add_child('cls'): child 'credit_links0 credit_links1' already has parent
warning: add_child('cls'): child 'credit_links0 credit_links1' already has parent
warning: add_child('cls'): child 'credit_links0 credit_links1' already has parent
warning: add_child('cls'): child 'credit_links0 credit_links1' already has parent
warning: add_child('cls'): child 'credit_links0 credit_links1' already has parent
warning: add_child('cls'): child 'credit_links0 credit_links1' already has parent
warning: add_child('cls'): child 'credit_links0 credit_links1' already has parent
warning: add_child('cls'): child 'credit_links0 credit_links1' already has parent
warning: add_child('cls'): child 'credit_links0 credit_links1' already has parent
warning: add_child('cls'): child 'credit_links0 credit_links1' already has parent
warning: add_child('cls'): child 'credit_links0 credit_links1' already has parent
warning: add_child('cls'): child 'credit_links0 credit_links1' already has parent
warning: add_child('cls'): child 'credit_links0 credit_links1' already has parent
warning: add_child('cls'): child 'credit_links0 credit_links1' already has parent
warning: add_child('cls'): child 'credit_links0 credit_links1' already has parent
warning: add_child('cls'): child 'credit_links0 credit_links1' already has parent
warning: add_child('cls'): child 'credit_links0 credit_links1' already has parent
warning: add_child('cls'): child 'credit_links0 credit_links1' already has parent
warning: add_child('cls'): child 'credit_links0 credit_links1' already has parent
warning: add_child('cls'): child 'credit_links0 credit_links1' already has parent
warning: add_child('cls'): child 'credit_links0 credit_links1' already has parent
Global frequency set at 1000000000000 ticks per second
warn: CoherentBus system.membus has no snooping ports attached!
0: system.remote_gdb.listener: listening for remote gdb #0 on port 7000
0: system.remote_gdb.listener: listening for remote gdb #1 on port 7001
0: system.remote_gdb.listener: listening for remote gdb #2 on port 7002
0: system.remote_gdb.listener: listening for remote gdb #3 on port 7003
0: system.remote_gdb.listener: listening for remote gdb #4 on port 7004
0: system.remote_gdb.listener: listening for remote gdb #5 on port 7005
0: system.remote_gdb.listener: listening for remote gdb #6 on port 7006
0: system.remote_gdb.listener: listening for remote gdb #7 on port 7007
0: system.remote_gdb.listener: listening for remote gdb #8 on port 7008
0: system.remote_gdb.listener: listening for remote gdb #9 on port 7009
0: system.remote_gdb.listener: listening for remote gdb #10 on port 7010
0: system.remote_gdb.listener: listening for remote gdb #11 on port 7011
0: system.remote_gdb.listener: listening for remote gdb #12 on port 7012
0: system.remote_gdb.listener: listening for remote gdb #13 on port 7013
0: system.remote_gdb.listener: listening for remote gdb #14 on port 7014
0: system.remote_gdb.listener: listening for remote gdb #15 on port 7015
base_freq_tps: 1000000000.0
sample_freq_tps: 10000.0
simulation_tick_tps: 1000.0
internal_sampling_freq_tps: 1e+12
time_: 10

num_tick_per_loop: 100000000
info: Entering event queue @ 0.  Starting simulation...
&& 0
%% 10000 1034
%% 26544 1103
%% 44192 1211
%% 63568 1367
%% 85440 1584
&& 0
%% 110784 1884
%% 140928 2292
%% 177600 2846
&& 3
%% 223136 3524
%% 279520 4319
&& 8
%% 348624 5078
&& 7
%% 429872 5732
&& 7
%% 521584 6214
&& 16
%% 621008 6304
&& 24
%% 721872 6027
&& 14
%% 818304 5691
%% 909360 5360
&& 14
%% 995120 5064
&& 18
%% 1076144 4772
&& 18
%% 1152496 4507
&& 20
%% 1224608 4263
%% 1292816 4050
&& 15
%% 1357616 3900
&& 14
%% 1420016 3806
%% 1480912 3754
&& 14
%% 1540976 3734
%% 1600720 3737
&& 28
%% 1660512 3692
&& 22
%% 1719584 3636
%% 1777760 3573
&& 18
%% 1834928 3527
%% 1891360 3494
&& 20
%% 1947264 3463
%% 2002672 3435
&& 13
%% 2057632 3447
&& 27
%% 2112784 3429
%% 2167648 3388
&& 22
%% 2221856 3348
%% 2275424 3310
&& 13
%% 2328384 3317
%% 2381456 3357
&& 19
%% 2435168 3392
%% 2489440 3421
&& 16
%% 2544176 3459
%% 2599520 3503
&& 16
%% 2655568 3549
&& 14
%% 2712352 3609
%% 2770096 3677
&& 6
%% 2828928 3835
%% 2890288 4064
&& 4
%% 2955312 4391
info: Increasing stack size by one page.
info: Increasing stack size by one page.
&& 3
%% 3025568 4824
%% 3102752 5336
&& 4
info: Increasing stack size by one page.
info: Increasing stack size by one page.
%% 3188128 5844
&& 12
%% 3281632 6080
&& 9
%% 3378912 6156
&& 20
%% 3477408 5934
&& 12
%% 3572352 5674
&& 13
%% 3663136 5405
&& 10
%% 3749616 5206
&& 6
%% 3832912 5155
&& 5
%% 3915392 5232
info: Increasing stack size by one page.
%% 3999104 5389
&& 6
%% 4085328 5561
&& 9
%% 4174304 5652
&& 8
%% 4264736 5702
&& 19
%% 4355968 5544
&& 13
%% 4444672 5347
&& 13
%% 4530224 5146
info: Increasing stack size by one page.
&& 13
%% 4612560 4960
info: Increasing stack size by one page.
info: Increasing stack size by one page.
info: Increasing stack size by one page.
%% 4691920 4797
&& 12
%% 4768672 4674
info: Increasing stack size by one page.
&& 14
%% 4843456 4559
&& 7
%% 4916400 4559
info: Increasing stack size by one page.
%% 4989344 4638
&& 12
%% 5063552 4688
&& 12
%% 5138560 4714
&& 16
%% 5213984 4677
info: Increasing stack size by one page.
%% 5288816 4601
&& 9
info: Increasing stack size by one page.
%% 5362432 4589
&& 16
%% 5435856 4536
%% 5508432 4458
&& 16
%% 5579760 4370
&& 23
%% 5649680 4235
&& 30
%% 5717440 4050
%% 5782240 3846
&& 28
%% 5843776 3649
%% 5902160 3467
&& 23
%% 5957632 3320
&& 26
%% 6010752 3192
%% 6061824 3083
&& 33
%% 6111152 2978
%% 6158800 2878
%% 6204848 2787
&& 35
%% 6249440 2702
%% 6292672 2623
&& 32
%% 6334640 2555
%% 6375520 2498
&& 25
%% 6415488 2459
%% 6454832 2436
%% 6493808 2425
&& 23
info: Increasing stack size by one page.
%% 6532608 2428
%% 6571456 2443
&& 29
%% 6610544 2458
info: Increasing stack size by one page.
%% 6649872 2472
%% 6689424 2486
&& 19
%% 6729200 2517
%% 6769472 2563
&& 17
%% 6810480 2626
%% 6852496 2704
%% 6895760 2792
&& 15
%% 6940432 2897
%% 6986784 3013
&& 14
%% 7034992 3142
%% 7085264 3279
&& 23
%% 7137728 3382
%% 7191840 3450
&& 20
%% 7247040 3498
%% 7303008 3529
&& 17
%% 7359472 3559
&& 10
%% 7416416 3639
%% 7474640 3755
&& 16
%% 7534720 3848
%% 7596288 3918
&& 20
%% 7658976 3944
&& 23
%% 7722080 3920
%% 7784800 3861
&& 20
%% 7846576 3795
info: Increasing stack size by one page.
%% 7907296 3727
&& 24
%% 7966928 3644
&& 19
%% 8025232 3575
%% 8082432 3519
&& 23
%% 8138736 3458
%% 8194064 3397
&& 22
%% 8248416 3341
%% 8301872 3291
&& 26
%% 8354528 3236
%% 8406304 3179
&& 21
%% 8457168 3136
%% 8507344 3106
&& 22
%% 8557040 3084
%% 8606384 3067
&& 18
%% 8655456 3070
%% 8704576 3087
&& 18
%% 8753968 3115
%% 8803808 3152
&& 18
%% 8854240 3194
%% 8905344 3239
&& 20
%% 8957168 3278
%% 9009616 3310
&& 18
%% 9062576 3344
&& 17
%% 9116080 3383
%% 9170208 3425
&& 15
%% 9225008 3478
%% 9280656 3539
&& 13
%% 9337280 3617
%% 9395152 3706
&& 13
%% 9454448 3801
&& 9
%% 9515264 3937
%% 9578256 4102
&& 15
%% 9643888 4221
&& 14
%% 9711424 4306
%% 9780320 4360
&& 12
%% 9850080 4409
&& 6
%% 9920624 4547
%% 9993376 4747
&& 9
%% 10069328 4923
&& 7
%% 10148096 5111
&& 11
%% 10229872 5216
&& 6
%% 10313328 5363
%% 10399136 5530
&& 5
%% 10487616 5733
&& 8
%% 10579344 5852
&& 10
%% 10672976 5852
&& 15
%% 10766608 5689
&& 12
%% 10857632 5492
&& 12
%% 10945504 5293
&& 14
%% 11030192 5081
&& 16
%% 11111488 4859
%% 11189232 4647
&& 25
%% 11263584 4397
&& 32
%% 11333936 4118
%% 11399824 3842
&& 29
%% 11461296 3595
&& 26
%% 11518816 3389
%% 11573040 3218
&& 21
%% 11624528 3092
%% 11674000 3002
&& 16
%% 11722032 2957
%% 11769344 2947
&& 14
%% 11816496 2974
%% 11864080 3030
&& 8
%% 11912560 3149
%% 11962944 3322
&& 13
%% 12016096 3498
%% 12072064 3670
&& 10
%% 12130784 3861
%% 12192560 4059
&& 9
%% 12257504 4270
&& 5
%% 12325824 4555
%% 12398704 4892
&& 7
%% 12476976 5204
&& 5
%% 12560240 5531
&& 4
%% 12648736 5885
&& 2
%% 12742896 6339
&& 6
%% 12844320 6627
&& 5
%% 12950352 6809
&& 4
%% 13059296 6955
&& 5
%% 13170576 7008
&& 3
%% 13282704 7118
&& 4
%% 13396592 7184
&& 6
&& 2
%% 13511536 7360
&& 1
%% 13629296 7676
&& 2
%% 13752112 7942
&& 3
%% 13879184 8055
&& 3
%% 14008064 8065
&& 0
&& 5
%% 14137104 7872
&& 11
%% 14263056 7346
&& 12
%% 14380592 6724
&& 13
%% 14488176 6131
&& 13
%% 14586272 5629
&& 6
%% 14676336 5386
&& 4
%% 14762512 5370
&& 3
%% 14848432 5539
&& 3
%% 14937056 5825
&& 5
%% 15030256 6089
&& 8
%% 15127680 6209
&& 5
%% 15227024 6328
&& 13
%% 15328272 6205
&& 15
%% 15427552 5918
&& 20
%% 15522240 5515
&& 22
%% 15610480 5080
%% 15691760 4673
&& 26
%% 15766528 4298
&& 21
%% 15835296 3995
%% 15899216 3753
&& 15
%% 15959264 3595
&& 17
%% 16016784 3485
%% 16072544 3412
&& 8
%% 16127136 3436
%% 16182112 3532
&& 8
%% 16238624 3685
%% 16297584 3882
&& 5
%% 16359696 4161
&& 4
%% 16426272 4528
%% 16498720 4961
&& 19
%% 16578096 5177
&& 10
%% 16660928 5314
&& 9
%% 16745952 5403
&& 16
%% 16832400 5340
&& 15
%% 16917840 5197
%% 17000992 5017
&& 13
%% 17081264 4854
&& 9
%% 17158928 4773
&& 5
%% 17235296 4840
&& 8
%% 17312736 4933
%% 17391664 5039
&& 5
%% 17472288 5225
&& 6
%% 17555888 5428
&& 6
%% 17642736 5630
&& 6
%% 17732816 5815
&& 13
%% 17825856 5808
&& 10
%% 17918784 5732
&& 13
%% 18010496 5567
%% 18099568 5364
&& 27
%% 18185392 5031
&& 24
%% 18265888 4676
&& 19
%% 18340704 4372
&& 18
%% 18410656 4127
%% 18476688 3932
&& 14
%% 18539600 3807
%% 18600512 3733
&& 12
%% 18660240 3714
&& 17
%% 18719664 3699
%% 18778848 3688
&& 13
%% 18837856 3707
%% 18897168 3749
&& 19
%% 18957152 3767
&& 19
%% 19017424 3767
%% 19077696 3753
&& 14
%% 19137744 3760
%% 19197904 3783
&& 11
%% 19258432 3843
&& 7
%% 19319920 3979
%% 19383584 4171
&& 7
%% 19450320 4404
&& 10
%% 19520784 4610
%% 19594544 4784
&& 8
%% 19671088 4957
&& 18
%% 19750400 4983
&& 15
%% 19830128 4934
%% 19909072 4838
&& 17
%% 19986480 4700
&& 14
%% 20061680 4574
&& 12
%% 20134864 4487
%% 20206656 4430
&& 14
%% 20277536 4376
&& 14
%% 20347552 4327
&& 9
%% 20416784 4343
%% 20486272 4405
&& 12
%% 20556752 4457
&& 9
%% 20628064 4540
%% 20700704 4642
&& 10
%% 20774976 4736
&& 10
%% 20850752 4818
&& 15
%% 20927840 4822
%% 21004992 4771
&& 20
%% 21081328 4645
&& 13
%% 21155648 4542
&& 12
%% 21228320 4471
%% 21299856 4427
&& 8
%% 21370688 4460
&& 11
%% 21442048 4500
&& 15
%% 21514048 4500
%% 21586048 4470
&& 9
%% 21657568 4495
&& 22
%% 21729488 4434
%% 21800432 4316
&& 22
%% 21869488 4171
&& 21
%% 21936224 4021
%% 22000560 3878
&& 20
%% 22062608 3752
&& 16
%% 22122640 3665
%% 22181280 3609
&& 18
%% 22239024 3566
%% 22296080 3534
&& 16
%% 22352624 3522
%% 22408976 3526
&& 15
%% 22465392 3547
&& 26
%% 22522144 3533
%% 22578672 3493
&& 19
%% 22634560 3461
%% 22689936 3437
&& 22
%% 22744928 3407
%% 22799440 3374
&& 20
%% 22853424 3348
%% 22906992 3327
&& 16
%% 22960224 3329
&& 21
%% 23013488 3328
%% 23066736 3323
&& 14
%% 23119904 3348
%% 23173472 3397
&& 11
%% 23227824 3483
%% 23283552 3599
&& 17
%% 23341136 3694
%% 23400240 3766
&& 25
%% 23460496 3782
&& 15
%% 23521008 3803
%% 23581856 3827
&& 16
%% 23643088 3846
%% 23704624 3860
&& 17
%% 23766384 3863
&& 12
%% 23828192 3897
%% 23890544 3951
&& 21
%% 23953760 3957
&& 20
%% 24017072 3932
%% 24079984 3886
&& 24
%% 24142160 3810
%% 24203120 3717
&& 23
%% 24262592 3620
&& 14
%% 24320512 3571
%% 24377648 3558
&& 17
%% 24434576 3554
%% 24491440 3557
&& 4
%% 24548352 3699
%% 24607536 3953
&& 12
%% 24670784 4180
&& 10
%% 24737664 4394
%% 24807968 4587
&& 18
%% 24881360 4666
&& 29
%% 24956016 4592
&& 17
%% 25029488 4488
%% 25101296 4371
&& 24
%% 25171232 4212
&& 19
%% 25238624 4062
%% 25303616 3927
&& 18
%% 25366448 3815
&& 30
%% 25427488 3677
%% 25486320 3528
&& 29
%% 25542768 3383
%% 25596896 3248
&& 20
%% 25648864 3150
%% 25699264 3081
&& 19
%% 25748560 3040
%% 25797200 3020
&& 16
%% 25845520 3029
%% 25893984 3060
&& 23
%% 25942944 3084
%% 25992288 3101
&& 12
%% 26041904 3159
%% 26092448 3249
&& 9
%% 26144432 3388
%% 26198640 3567
&& 11
%% 26255712 3755
&& 12
%% 26315792 3937
%% 26378784 4104
&& 19
%% 26444448 4198
&& 19
%% 26511616 4227
%% 26579248 4208
&& 17
%% 26646576 4168
&& 19
%% 26713264 4103
%% 26778912 4023
&& 19
%% 26843280 3939
%% 26906304 3856
&& 20
%% 26968000 3773
&& 15
%% 27028368 3722
%% 27087920 3696
&& 19
%% 27147056 3667
%% 27205728 3636
&& 22
%% 27263904 3592
&& 15
%% 27321376 3576
%% 27378592 3581
&& 18
%% 27435888 3584
%% 27493232 3585
&& 13
%% 27550592 3617
%% 27608464 3670
&& 10
%% 27667184 3765
&& 21
%% 27727424 3815
%% 27788464 3825
&& 15
%% 27849664 3841
&& 19
%% 27911120 3835
%% 27972480 3814
&& 17
%% 28033504 3793
%% 28094192 3774
&& 15
%% 28154576 3770
&& 15
%% 28214896 3776
%% 28275312 3791
&& 19
%% 28335968 3787
%% 28396560 3769
&& 25
%% 28456864 3716
&& 28
%% 28516320 3632
%% 28574432 3530
&& 32
%% 28630912 3410
%% 28685472 3284
&& 20
%% 28738016 3193
%% 28789104 3128
&& 17
%% 28839152 3096
%% 28888688 3090
&& 21
%% 28938128 3090
%% 28987568 3094
&& 13
%% 29037072 3135
%% 29087232 3206
&& 16
%% 29138528 3283
%% 29191056 3364
&& 9
%% 29244880 3494
%% 29300784 3664
&& 6
%% 29359408 3903
&& 5
%% 29421856 4217
%% 29489328 4588
&& 15
%% 29562736 4833
&& 10
%% 29640064 5020
&& 6
%% 29720384 5235
%% 29804144 5459
&& 9
%% 29891488 5595
&& 13
%% 29981008 5581
&& 16
%% 30070304 5430
&& 15
%% 30157184 5223
&& 25
%% 30240752 4916
&& 25
%% 30319408 4582
%% 30392720 4263
&& 22
%% 30460928 3990
&& 16
%% 30524768 3797
%% 30585520 3664
&& 14
%% 30644144 3588
%% 30701552 3555
&& 16
%% 30758432 3542
&& 15
%% 30815104 3549
%% 30871888 3573
&& 11
%% 30929056 3637
%% 30987248 3732
&& 17
%% 31046960 3804
%% 31107824 3853
&& 17
%% 31169472 3883
&& 14
%% 31231600 3918
%% 31294288 3956
&& 15
%% 31357584 3985
&& 18
%% 31421344 3987
%% 31485136 3969
&& 14
%% 31548640 3965
&& 16
%% 31612080 3957
%% 31675392 3945
&& 13
%% 31738512 3956
%% 31801808 3982
&& 12
%% 31865520 4028
&& 11
%% 31929968 4097
%% 31995520 4180
&& 13
%% 32062400 4250
&& 27
%% 32130400 4219
%% 32197904 4118
&& 27
%% 32263792 3976
&& 29
%% 32327408 3809
%% 32388352 3636
&& 28
%% 32446528 3471
%% 32502064 3320
&& 32
%% 32555184 3176
%% 32606000 3044
&& 34
%% 32654704 2921
%% 32701440 2809
&& 34
%% 32746384 2709
%% 32789728 2621
&& 32
%% 32831664 2546
%% 32872400 2482
&& 30
%% 32912112 2432
%% 32951024 2392
%% 32989296 2362
&& 28
%% 33027088 2343
%% 33064576 2332
%% 33101888 2329
&& 29
%% 33139152 2330
%% 33176432 2336
&& 25
%% 33213808 2350
%% 33251408 2372
%% 33289360 2399
&& 19
%% 33327744 2442
%% 33366816 2499
%% 33406800 2567
&& 15
%% 33447872 2655
%% 33490352 2761
&& 16
%% 33534528 2876
%% 33580544 2998
&& 11
%% 33628512 3150
%% 33678912 3325
&& 20
%% 33732112 3468
%% 33787600 3576
&& 15
%% 33844816 3676
%% 33903632 3767
&& 11
%% 33963904 3879
&& 14
%% 34025968 3977
%% 34089600 4059
&& 20
%% 34154544 4084
&& 16
%% 34219888 4090
%% 34285328 4083
&& 8
%% 34350656 4151
&& 12
%% 34417072 4220
%% 34484592 4287
&& 11
%% 34553184 4362
&& 10
%% 34622976 4450
%% 34694176 4545
&& 9
%% 34766896 4655
&& 6
%% 34841376 4831
&& 15
%% 34918672 4901
%% 34997088 4889
&& 15
%% 35075312 4822
&& 18
%% 35152464 4695
&& 16
%% 35227584 4557
%% 35300496 4422
&& 13
%% 35371248 4325
&& 12
%% 35440448 4270
%% 35508768 4246
&& 18
%% 35576704 4193
&& 17
%% 35643792 4130
&& 13
%% 35709872 4097
%% 35775424 4085
&& 15
%% 35840784 4072
%% 35905936 4060
&& 11
%% 35970896 4085
&& 9
%% 36036256 4161
%% 36102832 4274
&& 10
%% 36171216 4394
&& 14
%% 36241520 4469
&& 16
%% 36313024 4487
%% 36384816 4463
&& 20
%% 36456224 4381
&& 7
%% 36526320 4407
%% 36596832 4509
&& 9
%% 36668976 4626
&& 0
%% 36742992 5035
&& 5
%% 36823552 5448
&& 11
%% 36910720 5683
%% 37001648 5762
&& 14
%% 37093840 5675
&& 22
%% 37184640 5406
&& 12
%% 37271136 5172
&& 13
%% 37353888 4963
&& 11
%% 37433296 4814
&& 19
%% 37510320 4627
%% 37584352 4431
&& 20
%% 37655248 4236
&& 14
%% 37723024 4100
%% 37788624 4007
&& 13
%% 37852736 3958
&& 14
%% 37916064 3932
%% 37978976 3924
&& 6
%% 38041760 4026
%% 38106176 4209
&& 11
%% 38173520 4375
&& 9
%% 38243520 4546
&& 4
%% 38316256 4823
%% 38393424 5175
&& 7
%% 38476224 5476
&& 20
%% 38563840 5513
&& 23
%% 38652048 5336
&& 20
%% 38737424 5072
&& 18
%% 38818576 4798
%% 38895344 4541
&& 22
%% 38968000 4289
&& 17
%% 39036624 4087
%% 39102016 3929
&& 20
%% 39164880 3791
&& 19
%% 39225536 3676
%% 39284352 3584
&& 20
%% 39341696 3507
%% 39397808 3442
&& 16
%% 39452880 3409
%% 39507424 3400
&& 10
%% 39561824 3451
&& 6
%% 39617040 3594
%% 39674544 3812
&& 18
%% 39735536 3973
%% 39799104 4076
&& 16
%% 39864320 4141
&& 13
%% 39930576 4199
%% 39997760 4249
&& 13
%% 40065744 4290
&& 14
%% 40134384 4313
%% 40203392 4322
&& 17
%% 40272544 4294
&& 17
%% 40341248 4243
%% 40409136 4178
&& 23
%% 40475984 4073
&& 28
%% 40541152 3929
%% 40604016 3766
&& 29
%% 40664272 3599
&& 19
%% 40721856 3472
%% 40777408 3379
&& 17
%% 40831472 3321
%% 40884608 3290
&& 28
%% 40937248 3244
%% 40989152 3189
&& 15
%% 41040176 3172
%% 41090928 3186
&& 16
%% 41141904 3219
%% 41193408 3265
&& 11
%% 41245648 3351
%% 41299264 3469
&& 20
%% 41354768 3557
&& 13
%% 41411680 3655
%% 41470160 3760
&& 26
%% 41530320 3797
%% 41591072 3780
&& 27
%% 41651552 3721
&& 36
%% 41711088 3613
%% 41768896 3475
&& 23
%% 41824496 3359
%% 41878240 3260
&& 26
%% 41930400 3170
%% 41981120 3089
&& 26
%% 42030544 3018
%% 42078832 2956
&& 26
%% 42126128 2903
%% 42172576 2858
&& 14
%% 42218304 2858
%% 42264032 2893
&& 17
%% 42310320 2943
%% 42357408 3004
%% 42405472 3074
&& 17
%% 42454656 3150
%% 42505056 3227
&& 27
%% 42556688 3272
%% 42609040 3287
&& 21
%% 42661632 3297
&& 15
%% 42714384 3329
%% 42767648 3377
&& 11
%% 42821680 3463
%% 42877088 3579
&& 21
%% 42934352 3656
%% 42992848 3697
&& 13
%% 43052000 3755
&& 17
%% 43112080 3796
%% 43172816 3823
&& 17
%% 43233984 3838
%% 43295392 3843
&& 27
%% 43356880 3796
&& 20
%% 43417616 3741
%% 43477472 3683
&& 20
%% 43536400 3626
%% 43594416 3573
&& 17
%% 43651584 3538
%% 43708192 3518
&& 20
%% 43764480 3496
&& 17
%% 43820416 3487
%% 43876208 3489
&& 15
%% 43932032 3509
%% 43988176 3544
&& 13
%% 44044880 3601
%% 44102496 3675
&& 18
%% 44161296 3727
&& 12
%% 44220928 3801
%% 44281744 3889
&& 13
%% 44343968 3976
%% 44407584 4059
&& 14
%% 44472528 4125
&& 16
%% 44538528 4160
%% 44605088 4169
&& 17
%% 44671792 4152
&& 23
%% 44738224 4082
%% 44803536 3981
&& 22
%% 44867232 3868
&& 16
%% 44929120 3787
%% 44989712 3730
&& 11
%% 45049392 3732
%% 45109104 3778
&& 16
%% 45169552 3815
&& 14
%% 45230592 3858
%% 45292320 3904
&& 14
%% 45354784 3950
&& 15
%% 45417984 3986
%% 45481760 4014
&& 17
%% 45545984 4019
&& 15
%% 45610288 4022
%% 45674640 4023
&& 18
%% 45739008 4002
%% 45803040 3966
&& 12
%% 45866496 3967
&& 14
%% 45929968 3977
%% 45993600 3994
&& 16
%% 46057504 3999
&& 15
%% 46121488 4003
%% 46185536 4005
&& 13
%% 46249616 4023
&& 15
%% 46313984 4035
%% 46378544 4042
&& 16
%% 46443216 4038
%% 46507824 4025
&& 15
%% 46572224 4015
&& 14
%% 46636464 4015
%% 46700704 4022
&& 19
%% 46765056 3999
&& 12
%% 46829040 4009
%% 46893184 4042
&& 12
%% 46957856 4090
&& 14
%% 47023296 4130
%% 47089376 4160
&& 17
%% 47155936 4159
&& 19
%% 47222480 4122
%% 47288432 4061
&& 14
%% 47353408 4023
&& 14
%% 47417776 4003
%% 47481824 3996
&& 12
%% 47545760 4017
&& 15
%% 47610032 4031
%% 47674528 4040
&& 20
%% 47739168 4013
%% 47803376 3960
&& 13
%% 47866736 3940
&& 15
%% 47929776 3928
%% 47992624 3923
&& 11
%% 48055392 3958
&& 15
%% 48118720 3986
%% 48182496 4007
&& 18
%% 48246608 4001
&& 13
%% 48310624 4013
%% 48374832 4039
&& 15
%% 48439456 4055
%% 48504336 4064
&& 12
%% 48569360 4095
&& 13
%% 48634880 4129
%% 48700944 4165
&& 15
%% 48767584 4183
&& 18
%% 48834512 4164
%% 48901136 4121
&& 16
%% 48967072 4076
&& 22
%% 49032288 3996
%% 49096224 3898
&& 29
%% 49158592 3767
&& 19
%% 49218864 3659
%% 49277408 3572
&& 18
%% 49334560 3508
%% 49390688 3463
&& 20
%% 49446096 3424
%% 49500880 3391
&& 11
%% 49555136 3416
&& 15
%% 49609792 3456
%% 49665088 3507
&& 15
%% 49721200 3565
%% 49778240 3627
&& 14
%% 49836272 3696
%% 49895408 3768
&& 17
%% 49955696 3819
&& 15
%% 50016800 3866
%% 50078656 3907
&& 16
%% 50141168 3934
%% 50204112 3950
&& 13
%% 50267312 3981
&& 17
%% 50331008 3990
%% 50394848 3983
&& 15
%% 50458576 3979
&& 22
%% 50522240 3935
%% 50585200 3866
&& 19
%% 50647056 3797
%% 50707808 3732
&& 21
%% 50767520 3662
&& 17
%% 50826112 3613
%% 50883920 3580
&& 13
%% 50941200 3586
%% 50998576 3621
&& 14
%% 51056512 3669
&& 18
%% 51115216 3701
%% 51174432 3720
&& 14
%% 51233952 3753
%% 51294000 3796
&& 11
%% 51354736 3870
&& 12
%% 51416656 3956
%% 51479952 4048
&& 20
%% 51544720 4081
&& 15
%% 51610016 4101
%% 51675632 4111
&& 21
%% 51741408 4074
%% 51806592 4005
&& 17
%% 51870672 3942
&& 13
%% 51933744 3915
%% 51996384 3915
&& 22
%% 52059024 3879
&& 12
%% 52121088 3883
%% 52183216 3916
&& 10
%% 52245872 3990
&& 14
%% 52309712 4053
%% 52374560 4106
&& 13
%% 52440256 4156
%% 52506752 4202
&& 10
%% 52573984 4277
&& 17
%% 52642416 4301
&& 14
%% 52711232 4311
%% 52780208 4310
&& 9
%% 52849168 4360
&& 15
%% 52918928 4377
%% 52988960 4368
&& 10
%% 53058848 4396
&& 15
%% 53129184 4394
%% 53199488 4371
&& 20
%% 53269424 4297
&& 13
%% 53338176 4248
%% 53406144 4218
&& 20
%% 53473632 4151
&& 15
%% 53540048 4096
%% 53605584 4052
&& 17
%% 53670416 4003
&& 17
%% 53734464 3954
%% 53797728 3906
&& 15
%% 53860224 3876
&& 17
%% 53922240 3846
%% 53983776 3818
&& 11
%% 54044864 3839
%% 54106288 3895
&& 17
%% 54168608 3929
&& 12
%% 54231472 3982
%% 54295184 4048
&& 9
%% 54359952 4156
&& 7
%% 54426448 4324
%% 54495632 4532
&& 12
%% 54568144 4685
&& 14
%% 54643104 4762
&& 23
%% 54719296 4706
%% 54794592 4563
&& 23
%% 54867600 4375
&& 18
%% 54937600 4203
%% 55004848 4052
&& 24
%% 55069680 3892
&& 22
%% 55131952 3744
%% 55191856 3612
&& 18
%% 55249648 3515
%% 55305888 3445
&& 17
%% 55361008 3402
&& 19
%% 55415440 3372
%% 55469392 3352
&& 22
%% 55523024 3328
%% 55576272 3303
&& 18
%% 55629120 3293
%% 55681808 3295
&& 22
%% 55734528 3290
%% 55787168 3281
&& 17
%% 55839664 3289
%% 55892288 3309
&& 16
%% 55945232 3342
%% 55998704 3386
&& 16
%% 56052880 3437
%% 56107872 3491
&& 12
%% 56163728 3573
&& 8
%% 56220896 3714
%% 56280320 3901
&& 4
%% 56342736 4193
&& 8
%% 56409824 4489
%% 56481648 4773
&& 13
%% 56558016 4952
&& 6
%% 56637248 5166
&& 17
%% 56719904 5207
%% 56803216 5125
&& 25
%% 56885216 4908
&& 22
%% 56963744 4648
&& 26
%% 57038112 4363
%% 57107920 4086
&& 26
%% 57173296 3834
&& 18
%% 57234640 3648
%% 57293008 3512
&& 24
%% 57349200 3391
%% 57403456 3285
&& 20
%% 57456016 3208
%% 57507344 3153
&& 17
%% 57557792 3129
%% 57607856 3128
&& 9
%% 57657904 3194
%% 57709008 3314
&& 14
%% 57762032 3439
&& 5
%% 57817056 3657
%% 57875568 3954
&& 12
%% 57938832 4216
%% 58006288 4434
&& 16
%% 58077232 4562
&& 27
%% 58150224 4543
&& 27
%% 58222912 4421
%% 58293648 4241
&& 18
%% 58361504 4082
&& 27
%% 58426816 3903
%% 58489264 3722
&& 28
%% 58548816 3548
%% 58605584 3387
&& 19
%% 58659776 3271
&& 28
%% 58712112 3163
%% 58762720 3065
&& 25
%% 58811760 2984
%% 58859504 2918
%% 58906192 2865
&& 35
%% 58952032 2807
%% 58996944 2745
&& 28
%% 59040864 2694
%% 59083968 2652
&& 26
%% 59126400 2622
%% 59168352 2600
&& 24
%% 59209952 2591
%% 59251408 2591
%% 59292864 2599
&& 20
%% 59334448 2623
%% 59376416 2658
&& 19
%% 59418944 2705
%% 59462224 2762
%% 59506416 2826
&& 13
%% 59551632 2919
%% 59598336 3034
&& 11
%% 59646880 3180
%% 59697760 3349
&& 17
%% 59751344 3499
%% 59807328 3625
&& 16
%% 59865328 3732
&& 15
%% 59925040 3825
%% 59986240 3904
&& 18
%% 60048704 3947
&& 27
%% 60111856 3921
%% 60174592 3846
&& 20
%% 60236128 3769
%% 60296432 3694
&& 21
%% 60355536 3619
&& 23
%% 60413440 3541
%% 60470096 3463
&& 19
%% 60525504 3404
%% 60579968 3362
&& 16
%% 60633760 3347
%% 60687312 3353
&& 13
%% 60740960 3393
%% 60795248 3459
&& 9
%% 60850592 3576
%% 60907808 3735
&& 18
%% 60967568 3851
&& 17
%% 61029184 3933
%% 61092112 3983
&& 19
%% 61155840 3995
&& 18
%% 61219760 3983
%% 61283488 3955
&& 11
%% 61346768 3973
&& 14
%% 61410336 3995
%% 61474256 4019
&& 24
%% 61538560 3985
%% 61602320 3911
&& 24
%% 61664896 3813
&& 24
%% 61725904 3704
%% 61785168 3593
&& 31
%% 61842656 3466
%% 61898112 3334
&& 15
%% 61951456 3260
%% 62003616 3229
&& 29
%% 62055280 3184
%% 62106224 3128
&& 22
%% 62156272 3086
%% 62205648 3054
&& 25
%% 62254512 3024
%% 62302896 2995
&& 18
%% 62350816 2989
%% 62398640 3002
&& 12
%% 62446672 3056
%% 62495568 3145
&& 9
%% 62545888 3283
%% 62598416 3461
&& 7
%% 62653792 3695
&& 6
%% 62712912 3987
%% 62776704 4325
&& 23
%% 62845904 4515
&& 18
%% 62918144 4598
%% 62991712 4595
&& 22
%% 63065232 4505
&& 14
%% 63137312 4423
%% 63208080 4352
&& 25
%% 63277712 4220
&& 17
%% 63345232 4102
&& 17
%% 63410864 3999
%% 63474848 3912
&& 12
%% 63537440 3878
%% 63599488 3884
&& 23
%% 63661632 3849
&& 18
%% 63723216 3812
%% 63784208 3774
&& 16
%% 63844592 3749
%% 63904576 3734
&& 15
%% 63964320 3735
&& 16
%% 64024080 3740
%% 64083920 3749
&& 22
%% 64143904 3728
%% 64203552 3687
&& 14
%% 64262544 3677
&& 15
%% 64321376 3683
%% 64380304 3700
&& 8
%% 64439504 3791
%% 64500160 3937
&& 16
%% 64563152 4043
&& 11
%% 64627840 4158
%% 64694368 4273
&& 17
%% 64762736 4327
&& 19
%% 64831968 4318
%% 64901056 4265
&& 19
%% 64969296 4183
&& 28
%% 65036224 4046
%% 65100960 3881
&& 26
%% 65163056 3715
&& 20
%% 65222496 3580
%% 65279776 3472
&& 15
%% 65335328 3413
%% 65389936 3389
&& 12
%% 65444160 3413
%% 65498768 3473
&& 9
%% 65554336 3586
&& 20
%% 65611712 3664
%% 65670336 3710
&& 21
%% 65729696 3724
%% 65789280 3714
&& 25
%% 65848704 3670
%% 65907424 3604
&& 27
%% 65965088 3519
&& 19
%% 66021392 3454
%% 66076656 3405
&& 14
%% 66131136 3396
%% 66185472 3416
&& 16
%% 66240128 3448
%% 66295296 3487
&& 22
%% 66351088 3503
%% 66407136 3501
&& 21
%% 66463152 3489
&& 22
%% 66518976 3466
%% 66574432 3436
&& 22
%% 66629408 3402
%% 66683840 3366
&& 19
%% 66737696 3341
%% 66791152 3327
&& 24
%% 66844384 3302
%% 66897216 3270
&& 16
%% 66949536 3266
%% 67001792 3282
&& 12
%% 67054304 3337
%% 67107696 3423
&& 13
%% 67162464 3524
&& 16
%% 67218848 3615
%% 67276688 3694
&& 20
%% 67335792 3740
%% 67395632 3757
&& 18
%% 67455744 3761
&& 19
%% 67515920 3751
%% 67575936 3731
&& 13
%% 67635632 3742
%% 67695504 3776
&& 19
%% 67755920 3787
&& 24
%% 67816512 3759
%% 67876656 3703
&& 23
%% 67935904 3633
%% 67994032 3558
&& 21
%% 68050960 3489
%% 68106784 3428
&& 22
%% 68161632 3371
&& 20
%% 68215568 3326
%% 68268784 3293
&& 27
%% 68321472 3247
%% 68373424 3194
&& 17
%% 68424528 3170
%% 68475248 3169
&& 22
%% 68525952 3166
%% 68576608 3163
&& 11
%% 68627216 3211
%% 68678592 3300
&& 20
%% 68731392 3371
%% 68785328 3426
&& 13
%% 68840144 3502
%% 68896176 3593
&& 14
%% 68953664 3686
&& 13
%% 69012640 3785
%% 69073200 3885
&& 14
%% 69135360 3973
%% 69198928 4048
&& 27
%% 69263696 4037
&& 19
%% 69328288 4001
%% 69392304 3949
&& 23
%% 69455488 3868
&& 18
%% 69517376 3797
%% 69578128 3735
&& 23
%% 69637888 3659
%% 69696432 3578
&& 21
%% 69753680 3505
&& 16
%% 69809760 3463
%% 69865168 3446
&& 31
%% 69920304 3396
%% 69974640 3323
&& 17
%% 70027808 3282
%% 70080320 3265
&& 24
%% 70132560 3241
%% 70184416 3212
&& 19
%% 70235808 3198
%% 70286976 3195
&& 21
%% 70338096 3194
%% 70389200 3194
&& 21
%% 70440304 3195
%% 70491424 3197
&& 18
%% 70542576 3211
%% 70593952 3233
&& 17
%% 70645680 3266
%% 70697936 3306
&& 18
%% 70750832 3347
%% 70804384 3387
&& 16
%% 70858576 3434
&& 19
%% 70913520 3471
%% 70969056 3498
&& 20
%% 71025024 3513
%% 71081232 3517
&& 20
%% 71137504 3513
%% 71193712 3504
&& 19
%% 71249776 3494
%% 71305680 3485
&& 33
%% 71361440 3435
&& 18
%% 71416400 3402
%% 71470832 3383
&& 10
%% 71524960 3426
%% 71579776 3518
&& 14
%% 71636064 3614
%% 71693888 3710
&& 9
%% 71753248 3849
&& 13
%% 71814832 3977
%% 71878464 4092
&& 12
%% 71943936 4199
&& 14
%% 72011120 4277
%% 72079552 4327
&& 10
%% 72148784 4400
&& 13
%% 72219184 4449
%% 72290368 4478
&& 18
%% 72362016 4446
&& 16
%% 72433152 4390
%% 72503392 4321
&& 18
%% 72572528 4231
&& 14
%% 72640224 4165
%% 72706864 4119
&& 16
%% 72772768 4072
&& 11
%% 72837920 4072
%% 72903072 4106
&& 10
%% 72968768 4175
&& 14
%% 73035568 4226
%% 73103184 4259
&& 14
%% 73171328 4278
&& 15
%% 73239776 4276
%% 73308192 4261
&& 9
%% 73376368 4303
&& 11
%% 73445216 4358
&& 21
%% 73514944 4335
%% 73584304 4258
&& 16
%% 73652432 4182
&& 11
%% 73719344 4158
%% 73785872 4172
&& 10
%% 73852624 4225
&& 14
%% 73920224 4259
%% 73988368 4280
&& 17
%% 74056848 4263
&& 13
%% 74125056 4256
%% 74193152 4256
&& 11
%% 74261248 4282
&& 17
%% 74329760 4270
%% 74398080 4231
&& 14
%% 74465776 4201
&& 23
%% 74532992 4118
%% 74598880 4005
&& 25
%% 74662960 3870
&& 18
%% 74724880 3761
%% 74785056 3673
&& 25
%% 74843824 3576
%% 74901040 3476
&& 18
%% 74956656 3406
&& 22
%% 75011152 3343
%% 75064640 3288
&& 10
%% 75117248 3305
%% 75170128 3376
&& 14
%% 75224144 3460
%% 75279504 3552
&& 13
%% 75336336 3654
%% 75394800 3761
&& 17
%% 75454976 3841
&& 15
%% 75516432 3908
%% 75578960 3962
&& 11
%% 75642352 4039
%% 75706976 4132
&& 15
%% 75773088 4193
&& 18
%% 75840176 4206
%% 75907472 4182
&& 16
%% 75974384 4148
&& 12
%% 76040752 4143
%% 76107040 4161
&& 15
%% 76173616 4165
&& 17
%% 76240256 4144
%% 76306560 4107
&& 18
%% 76372272 4054
&& 16
%% 76437136 4005
%% 76501216 3963
&& 21
%% 76564624 3898
&& 14
%% 76626992 3863
%% 76688800 3851
&& 8
%% 76750416 3919
&& 14
%% 76813120 3980
%% 76876800 4035
&& 14
%% 76941360 4082
%% 77006672 4120
&& 21
%% 77072592 4103
&& 19
%% 77138240 4058
%% 77203168 3996
&& 11
%% 77267104 3988
&& 16
%% 77330912 3975
%% 77394512 3960
&& 17
%% 77457872 3937
&& 14
%% 77520864 3931
%% 77583760 3937
&& 23
%% 77646752 3900
%% 77709152 3832
&& 21
%% 77770464 3757
&& 25
%% 77830576 3663
%% 77889184 3562
&& 18
%% 77946176 3488
%% 78001984 3436
&& 21
%% 78056960 3389
&& 23
%% 78111184 3341
%% 78164640 3293
&& 17
%% 78217328 3271
%% 78269664 3269
&& 11
%% 78321968 3318
%% 78375056 3406
&& 8
%% 78429552 3553
%% 78486400 3747
&& 14
%% 78546352 3917
%% 78609024 4059
&& 9
%% 78673968 4224
&& 10
%% 78741552 4388
&& 15
%% 78811760 4486
%% 78883536 4529
&& 20
%% 78956000 4488
&& 19
%% 79027808 4400
%% 79098208 4286
&& 17
%% 79166784 4176
&& 20
%% 79233600 4055
%% 79298480 3935
&& 10
%% 79361440 3899
&& 11
%% 79423824 3912
%% 79486416 3961
&& 20
%% 79549792 3968
&& 22
%% 79613280 3933
%% 79676208 3870
&& 21
%% 79738128 3795
%% 79798848 3716
&& 16
%% 79858304 3664
&& 11
%% 79916928 3670
%% 79975648 3720
&& 18
%% 80035168 3752
%% 80095200 3768
&& 11
%% 80155488 3822
&& 17
%% 80216640 3858
%% 80278368 3877
&& 9
%% 80340400 3955
%% 80403680 4074
&& 10
%% 80468864 4208
&& 7
%% 80536192 4394
%% 80606496 4615
&& 7
%% 80680336 4852
&& 17
%% 80757968 4946
&& 14
%% 80837104 4958
&& 14
%% 80916432 4913
%% 80995040 4832
&& 24
%% 81072352 4655
&& 20
%% 81146832 4456
&& 28
%% 81218128 4217
%% 81285600 3973
&& 20
%% 81349168 3775
&& 17
%% 81409568 3632
%% 81467680 3532
&& 9
%% 81524192 3525
%% 81580592 3587
&& 12
%% 81637984 3672
%% 81696736 3774
&& 13
%% 81757120 3876
&& 17
%% 81819136 3945
%% 81882256 3986
&& 18
%% 81946032 3996
&& 14
%% 82009968 4011
%% 82074144 4030
&& 15
%% 82138624 4042
%% 82203296 4049
&& 19
%% 82268080 4024
&& 20
%% 82332464 3973
%% 82396032 3907
&& 14
%% 82458544 3870
&& 11
%% 82520464 3884
%% 82582608 3934
&& 6
%% 82645552 4078
&& 9
%% 82710800 4245
%% 82778720 4423
&& 10
%% 82849488 4586
&& 11
%% 82922864 4714
%% 82998288 4807
&& 10
%% 83075200 4885
&& 14
%% 83153360 4891
&& 17
%% 83231616 4816
%% 83308672 4693
&& 13
%% 83383760 4589
&& 16
%% 83457184 4474
&& 14
%% 83528768 4378
%% 83598816 4299
&& 10
%% 83667600 4282
&& 11
%% 83736112 4295
%% 83804832 4330
&& 11
%% 83874112 4378
&& 6
%% 83944160 4517
&& 9
%% 84016432 4660
%% 84090992 4799
&& 9
%% 84167776 4927
&& 9
%% 84246608 5039
&& 12
%% 84327232 5081
%% 84408528 5071
&& 11
%% 84489664 5043
&& 6
%% 84570352 5108
&& 9
%% 84652080 5164
&& 7
%% 84734704 5253
&& 4
%% 84818752 5453
%% 84906000 5722
&& 11
%% 84997552 5819
&& 10
%% 85090656 5810
&& 18
%% 85183616 5609
&& 12
%% 85273360 5396
&& 19
%% 85359696 5111
&& 22
%% 85441472 4790
&& 21
%% 85518112 4483
%% 85589840 4209
&& 20
%% 85657184 3979
&& 24
%% 85720848 3772
%% 85781200 3590
&& 39
%% 85838640 3398
%% 85893008 3210
&& 31
%% 85944368 3047
%% 85993120 2907
&& 23
%% 86039632 2804
%% 86084496 2731
&& 23
%% 86128192 2680
%% 86171072 2649
&& 16
%% 86213456 2651
%% 86255872 2681
%% 86298768 2733
&& 18
%% 86342496 2797
%% 86387248 2869
&& 13
%% 86433152 2968
%% 86480640 3088
&& 15
%% 86530048 3214
%% 86581472 3341
&& 20
%% 86634928 3443
%% 86690016 3518
&& 18
%% 86746304 3579
%% 86803568 3625
&& 13
%% 86861568 3689
&& 6
%% 86920592 3844
%% 86982096 4071
&& 6
%% 87047232 4352
&& 10
%% 87116864 4600
%% 87190464 4807
&& 16
%% 87267376 4892
&& 8
%% 87345648 4995
&& 16
%% 87425568 4986
%% 87505344 4903
&& 11
%% 87583792 4837
&& 14
%% 87661184 4750
&& 18
%% 87737184 4616
&& 11
%% 87811040 4534
%% 87883584 4492
&& 8
%% 87955456 4524
&& 14
%% 88027840 4525
%% 88100240 4505
&& 9
%% 88172320 4536
&& 10
%% 88244896 4584
&& 24
%% 88318240 4520
%% 88390560 4383
&& 19
%% 88460688 4238
&& 14
%% 88528496 4133
%% 88594624 4061
&& 13
%% 88659600 4024
&& 10
%% 88723984 4045
%% 88788704 4106
&& 20
%% 88854400 4112
&& 12
%% 88920192 4138
%% 88986400 4178
&& 12
%% 89053248 4225
&& 13
%% 89120848 4266
%% 89189104 4300
&& 15
%% 89257904 4308
&& 16
%% 89326832 4288
%% 89395440 4251
&& 9
%% 89463456 4278
&& 14
%% 89531904 4291
%% 89600560 4294
&& 11
%% 89669264 4321
&& 10
%% 89738400 4377
%% 89808432 4452
&& 10
%% 89879664 4537
&& 14
%% 89952256 4575
&& 13
%% 90025456 4588
%% 90098864 4583
&& 13
%% 90172192 4565
&& 13
%% 90245232 4540
&& 16
%% 90317872 4482
%% 90389584 4405
&& 11
%% 90460064 4371
&& 11
%% 90530000 4369
%% 90599904 4390
&& 12
%% 90670144 4413
&& 14
%% 90740752 4415
&& 19
%% 90811392 4362
%% 90881184 4275
&& 20
%% 90949584 4164
&& 15
%% 91016208 4078
%% 91081456 4013
&& 18
%% 91145664 3945
%% 91208784 3879
&& 16
%% 91270848 3829
&& 13
%% 91332112 3816
%% 91393168 3830
&& 15
%% 91454448 3848
&& 14
%% 91516016 3875
%% 91578016 3909
&& 11
%% 91640560 3972
%% 91704112 4057
&& 16
%% 91769024 4109
&& 23
%% 91834768 4094
%% 91900272 4030
&& 20
%% 91964752 3950
&& 19
%% 92027952 3870
%% 92089872 3793
&& 20
%% 92150560 3717
&& 26
%% 92210032 3622
%% 92267984 3518
&& 22
%% 92324272 3427
%% 92379104 3348
&& 21
%% 92432672 3284
%% 92485216 3234
&& 13
%% 92536960 3233
%% 92588688 3269
&& 18
%% 92640992 3307
%% 92693904 3346
&& 17
%% 92747440 3389
%% 92801664 3433
&& 14
%% 92856592 3495
&& 14
%% 92912512 3567
%% 92969584 3647
&& 7
%% 93027936 3799
%% 93088720 4008
&& 14
%% 93152848 4175
&& 10
%% 93219648 4343
%% 93289136 4503
&& 15
%% 93361184 4589
&& 8
%% 93434608 4709
&& 18
%% 93509952 4722
%% 93585504 4658
&& 19
%% 93660032 4541
&& 16
%% 93732688 4420
%% 93803408 4305
&& 18
%% 93872288 4185
&& 15
%% 93939248 4092
%% 94004720 4022
&& 18
%% 94069072 3950
&& 16
%% 94132272 3894
%% 94194576 3850
&& 14
%% 94256176 3833
&& 17
%% 94317504 3815
%% 94378544 3796
&& 17
%% 94439280 3778
%% 94499728 3762
&& 17
%% 94559920 3747
&& 12
%% 94619872 3771
%% 94680208 3821
&& 10
%% 94741344 3912
%% 94803936 4029
&& 8
%% 94868400 4191
&& 5
%% 94935456 4440
%% 95006496 4751
&& 8
%% 95082512 5031
&& 7
%% 95163008 5289
&& 10
%% 95247632 5446
&& 14
%% 95334768 5449
&& 23
%% 95421952 5261
%% 95506128 4974
&& 19
%% 95585712 4687
&& 21
%% 95660704 4410
&& 20
%% 95731264 4165
%% 95797904 3957
&& 21
%% 95861216 3778
&& 23
%% 95921664 3619
%% 95979568 3480
&& 8
%% 96035248 3458
%% 96090576 3519
&& 10
%% 96146880 3622
%% 96204832 3758
&& 7
%% 96264960 3954
&& 6
%% 96328224 4212
%% 96395616 4515
&& 8
%% 96467856 4803
&& 9
%% 96544704 5042
&& 12
%% 96625376 5175
%% 96708176 5220
&& 14
%% 96791696 5172
&& 20
%% 96874448 5007
&& 20
%% 96954560 4784
&& 17
%% 97031104 4569
%% 97104208 4374
&& 15
%% 97174192 4222
&& 22
%% 97241744 4059
%% 97306688 3900
&& 20
%% 97369088 3762
&& 18
%% 97429280 3654
%% 97487744 3573
&& 24
%% 97544912 3488
%% 97600720 3404
&& 19
%% 97655184 3344
%% 97708688 3302
&& 10
%% 97761520 3328
&& 14
%% 97814768 3378
%% 97868816 3444
&& 14
%% 97923920 3523
%% 97980288 3608
&& 9
%% 98038016 3741
%% 98097872 3907
&& 8
%% 98160384 4111
&& 20
%% 98226160 4227
%% 98293792 4265
&& 13
%% 98362032 4297
&& 19
%% 98430784 4274
%% 98499168 4214
&& 19
%% 98566592 4131
&& 20
%% 98632688 4033
%% 98697216 3929
&& 36
%% 98760080 3774
&& 18
%% 98820464 3654
%% 98878928 3564
&& 20
%% 98935952 3489
%% 98991776 3427
&& 22
%% 99046608 3370
%% 99100528 3318
&& 23
%% 99153616 3268
%% 99205904 3223
&& 25
%% 99257472 3176
%% 99308288 3129
&& 18
%% 99358352 3108
%% 99408080 3105
&& 15
%% 99457760 3131
%% 99507856 3178
&& 14
%% 99558704 3247
&& 21
%% 99610656 3301
%% 99663472 3341
&& 26
%% 99716928 3352
%% 99770560 3340
&& 24
%% 99824000 3317
%% 99877072 3286
&& 39
%% 99929648 3220
%% 99981168 3132
(Time_stage 0) Exiting @100000000 for #100000000

info: Entering event queue @ 100000000.  Starting simulation...
&& 34
%% 100031280 3037
%% 100079872 2942
&& 30
%% 100126944 2857
%% 100172656 2781
&& 29
%% 100217152 2716
%% 100260608 2662
%% 100303200 2616
&& 24
%% 100345056 2587
%% 100386448 2571
&& 28
%% 100427584 2560
%% 100468544 2552
&& 22
%% 100509376 2558
%% 100550304 2576
%% 100591520 2602
&& 21
%% 100633152 2638
%% 100675360 2681
&& 20
%% 100718256 2732
%% 100761968 2789
%% 100806592 2850
&& 16
%% 100852192 2925
%% 100898992 3013
&& 16
%% 100947200 3108
%% 100996928 3208
&& 12
%% 101048256 3331
%% 101101552 3473
&& 24
%% 101157120 3564
&& 15
%% 101214144 3652
%% 101272576 3734
&& 12
%% 101332320 3831
%% 101393616 3936
&& 12
%% 101456592 4043
&& 11
%% 101521280 4158
%% 101587808 4274
&& 12
%% 101656192 4373
&& 15
%% 101726160 4424
%% 101796944 4436
&& 15
%% 101867920 4420
&& 18
%% 101938640 4361
%% 102008416 4276
&& 14
%% 102076832 4211
&& 15
%% 102144208 4154
&& 13
%% 102210672 4123
%% 102276640 4113
&& 13
%% 102342448 4117
%% 102408320 4131
&& 17
%% 102474416 4120
&& 9
%% 102540336 4169
%% 102607040 4261
&& 11
%% 102675216 4355
&& 15
%% 102744896 4403
&& 17
%% 102815344 4398
%% 102885712 4356
&& 25
%% 102955408 4243
&& 20
%% 103023296 4117
%% 103089168 3990
&& 16
%% 103153008 3893
&& 19
%% 103215296 3803
%% 103276144 3723
&& 17
%% 103335712 3663
%% 103394320 3621
&& 14
%% 103452256 3612
&& 7
%% 103510048 3696
%% 103569184 3851
&& 8
%% 103630800 4047
%% 103695552 4270
&& 10
%% 103763872 4476
&& 9
%% 103835488 4673
&& 18
%% 103910256 4747
%% 103986208 4724
&& 18
%% 104061792 4636
&& 13
%% 104135968 4558
%% 104208896 4493
&& 7
%% 104280784 4528
&& 6
%% 104353232 4654
&& 12
%% 104427696 4736
%% 104503472 4782
&& 19
%% 104579984 4728
&& 24
%% 104655632 4579
&& 23
%% 104728896 4386
%% 104799072 4180
&& 20
%% 104865952 3995
&& 21
%% 104929872 3830
%% 104991152 3686
&& 29
%% 105050128 3536
%% 105106704 3390
&& 24
%% 105160944 3266
&& 23
%% 105213200 3166
%% 105263856 3086
&& 24
%% 105313232 3021
%% 105361568 2968
&& 22
%% 105409056 2932
%% 105455968 2908
%% 105502496 2896
&& 16
%% 105548832 2912
%% 105595424 2951
&& 24
%% 105642640 2982
%% 105690352 3005
&& 21
%% 105738432 3030
%% 105786912 3056
&& 12
%% 105835808 3121
%% 105885744 3217
&& 9
%% 105937216 3361
%% 105990992 3544
&& 15
%% 106047696 3708
%% 106107024 3847
&& 17
%% 106168576 3948
&& 18
%% 106231744 4006
%% 106295840 4028
&& 14
%% 106360288 4050
&& 16
%% 106425088 4057
%% 106490000 4051
&& 18
%% 106554816 4024
&& 15
%% 106619200 4003
%% 106683248 3988
&& 26
%% 106747056 3919
&& 20
%% 106809760 3842
%% 106871232 3764
&& 17
%% 106931456 3705
%% 106990736 3661
&& 20
%% 107049312 3615
%% 107107152 3570
&& 20
%% 107164272 3527
&& 17
%% 107220704 3502
%% 107276736 3490
&& 20
%% 107332576 3475
%% 107388176 3459
&& 13
%% 107443520 3480
%% 107499200 3528
&& 7
%% 107555648 3656
&& 10
%% 107614144 3811
%% 107675120 3982
&& 6
%% 107738832 4220
%% 107806352 4506
&& 13
%% 107878448 4711
&& 9
%% 107953824 4893
&& 8
%% 108032112 5065
&& 8
%% 108113152 5219
%% 108196656 5348
&& 14
%% 108282224 5345
&& 10
%% 108367744 5316
&& 17
%% 108452800 5174
&& 18
%% 108535584 4966
&& 20
%% 108615040 4720
%% 108690560 4472
&& 19
%% 108762112 4249
&& 24
%% 108830096 4028
%% 108894544 3823
&& 25
%% 108955712 3637
&& 19
%% 109013904 3497
%% 109069856 3392
&& 14
%% 109124128 3343
%% 109177616 3334
&& 23
%% 109230960 3317
%% 109284032 3294
&& 19
%% 109336736 3281
%% 109389232 3278
&& 22
%% 109441680 3269
%% 109493984 3258
&& 18
%% 109546112 3260
%% 109598272 3272
&& 15
%% 109650624 3306
%% 109703520 3356
&& 13
%% 109757216 3430
&& 10
%% 109812096 3546
%% 109868832 3692
&& 11
%% 109927904 3851
%% 109989520 4014
&& 11
%% 110053744 4173
&& 14
%% 110120512 4291
%% 110189168 4372
&& 15
%% 110259120 4409
&& 15
%% 110329664 4412
%% 110400256 4391
&& 9
%% 110470512 4425
&& 12
%% 110541312 4456
&& 15
%% 110612608 4452
%% 110683840 4423
&& 10
%% 110754608 4435
&& 13
%% 110825568 4439
%% 110896592 4436
&& 11
%% 110967568 4453
&& 11
%% 111038816 4482
&& 15
%% 111110528 4475
%% 111182128 4443
&& 14
%% 111253216 4404
&& 19
%% 111323680 4324
%% 111392864 4220
&& 16
%% 111460384 4128
&& 16
%% 111526432 4049
%% 111591216 3983
&& 17
%% 111654944 3922
&& 14
%% 111717696 3890
%% 111779936 3878
&& 13
%% 111841984 3891
%% 111904240 3922
&& 13
%% 111966992 3964
&& 8
%% 112030416 4070
%% 112095536 4222
&& 19
%% 112163088 4294
&& 11
%% 112231792 4371
%% 112301728 4449
&& 12
%% 112372912 4509
&& 13
%% 112445056 4543
&& 8
%% 112517744 4626
%% 112591760 4742
&& 15
%% 112667632 4776
&& 18
%% 112744048 4722
&& 16
%% 112819600 4631
%% 112893696 4521
&& 19
%% 112966032 4383
&& 23
%% 113036160 4214
%% 113103584 4035
&& 17
%% 113168144 3895
&& 20
%% 113230464 3770
%% 113290784 3661
&& 21
%% 113349360 3564
%% 113406384 3480
&& 12
%% 113462064 3457
&& 20
%% 113517376 3436
%% 113572352 3415
&& 27
%% 113626992 3374
%% 113680976 3319
&& 22
%% 113734080 3270
%% 113786400 3228
&& 17
%% 113838048 3212
%% 113889440 3215
&& 20
%% 113940880 3222
%% 113992432 3231
&& 15
%% 114044128 3263
%% 114096336 3313
&& 15
%% 114149344 3376
%% 114203360 3447
&& 9
%% 114258512 3570
&& 15
%% 114315632 3682
%% 114374544 3782
&& 16
%% 114435056 3861
%% 114496832 3920
&& 19
%% 114559552 3942
&& 14
%% 114622624 3968
%% 114686112 3997
&& 15
%% 114750064 4018
&& 8
%% 114814352 4108
%% 114880080 4246
&& 15
%% 114948016 4335
&& 20
%% 115017376 4345
%% 115086896 4296
&& 15
%% 115155632 4246
&& 14
%% 115223568 4207
%% 115290880 4176
&& 12
%% 115357696 4174
&& 17
%% 115424480 4148
%% 115490848 4107
&& 12
%% 115556560 4099
&& 10
%% 115622144 4138
%% 115688352 4210
&& 14
%% 115755712 4261
&& 14
%% 115823888 4292
%% 115892560 4307
&& 19
%% 115961472 4272
&& 18
%% 116029824 4210
%% 116097184 4133
&& 11
%% 116163312 4110
&& 12
%% 116229072 4115
%% 116294912 4140
&& 16
%% 116361152 4144
&& 18
%% 116427456 4117
%% 116493328 4071
&& 18
%% 116558464 4013
&& 18
%% 116622672 3950
%% 116685872 3888
&& 22
%% 116748080 3807
&& 15
%% 116808992 3758
%% 116869120 3732
&& 15
%% 116928832 3724
%% 116988416 3729
&& 12
%% 117048080 3768
%% 117108368 3831
&& 14
%% 117169664 3893
&& 12
%% 117231952 3969
%% 117295456 4053
&& 21
%% 117360304 4074
&& 23
%% 117425488 4039
%% 117490112 3964
&& 16
%% 117553536 3905
&& 19
%% 117616016 3841
%% 117677472 3778
&& 16
%% 117737920 3734
%% 117797664 3707
&& 17
%% 117856976 3686
&& 17
%% 117915952 3672
%% 117974704 3663
&& 14
%% 118033312 3676
%% 118092128 3707
&& 19
%% 118151440 3719
&& 12
%% 118210944 3763
%% 118271152 3829
&& 17
%% 118332416 3874
%% 118394400 3899
&& 19
%% 118456784 3897
&& 28
%% 118519136 3838
%% 118580544 3741
&& 20
%% 118640400 3654
%% 118698864 3577
&& 15
%% 118756096 3536
&& 14
%% 118812672 3531
%% 118869168 3551
&& 25
%% 118925984 3539
%% 118982608 3504
&& 23
%% 119038672 3459
%% 119094016 3410
&& 27
%% 119148576 3347
%% 119202128 3277
&& 22
%% 119254560 3219
%% 119306064 3171
&& 18
%% 119356800 3148
%% 119407168 3143
&& 12
%% 119457456 3183
%% 119508384 3259
&& 15
%% 119560528 3344
&& 8
%% 119614032 3489
%% 119669856 3681
&& 19
%% 119728752 3824
%% 119789936 3916
&& 12
%% 119852592 4015
&& 13
%% 119916832 4104
%% 119982496 4182
&& 13
%% 120049408 4248
&& 12
%% 120117376 4311
%% 120186352 4369
&& 15
%% 120256256 4391
&& 18
%% 120326512 4360
%% 120396272 4295
&& 23
%% 120464992 4182
&& 15
%% 120531904 4093
%% 120597392 4025
&& 27
%% 120661792 3913
&& 26
%% 120724400 3781
%% 120784896 3643
&& 26
%% 120843184 3508
%% 120899312 3381
&& 19
%% 120953408 3290
%% 121006048 3227
&& 14
%% 121057680 3211
&& 13
%% 121109056 3235
%% 121160816 3291
&& 11
%% 121213472 3385
%% 121267632 3508
&& 5
%% 121323760 3726
%% 121383376 4023
&& 7
%% 121447744 4345
&& 6
%% 121517264 4696
%% 121592400 5054
&& 10
%% 121673264 5309
&& 20
%% 121758208 5334
&& 25
%% 121843552 5162
&& 15
%% 121926144 4967
%% 122005616 4775
&& 17
%% 122082016 4579
&& 17
%% 122155280 4397
&& 16
%% 122225632 4242
%% 122293504 4115
&& 18
%% 122359344 3998
&& 23
%% 122423312 3870
%% 122485232 3740
&& 19
%% 122545072 3635
%% 122603232 3550
&& 17
%% 122660032 3494
&& 19
%% 122715936 3450
%% 122771136 3417
&& 20
%% 122825808 3389
%% 122880032 3366
&& 18
%% 122933888 3355
%% 122987568 3355
&& 24
%% 123041248 3340
%% 123094688 3315
&& 17
%% 123147728 3309
%% 123200672 3318
&& 20
%% 123253760 3325
%% 123306960 3331
&& 17
%% 123360256 3349
&& 25
%% 123413840 3345
%% 123467360 3325
&& 24
%% 123520560 3297
%% 123573312 3262
&& 25
%% 123625504 3223
%% 123677072 3180
&& 15
%% 123727952 3174
%% 123778736 3196
&& 21
%% 123829872 3213
%% 123881280 3228
&& 14
%% 123932928 3270
%% 123985248 3333
&& 16
%% 124038576 3401
%% 124092992 3470
&& 17
%% 124148512 3532
%% 124205024 3586
&& 13
%% 124262400 3658
&& 14
%% 124320928 3733
%% 124380656 3809
&& 19
%% 124441600 3851
%% 124503216 3863
&& 16
%% 124565024 3872
&& 15
%% 124626976 3884
%% 124689120 3898
&& 14
%% 124751488 3921
&& 15
%% 124814224 3941
%% 124877280 3959
&& 13
%% 124940624 3990
%% 125004464 4030
&& 20
%% 125068944 4026
&& 16
%% 125133360 4014
%% 125197584 3997
&& 13
%% 125261536 4002
&& 22
%% 125325568 3963
%% 125388976 3896
&& 15
%% 125451312 3852
&& 19
%% 125512944 3802
%% 125573776 3750
&& 16
%% 125633776 3716
%% 125693232 3696
&& 18
%% 125752368 3676
&& 14
%% 125811184 3682
%% 125870096 3706
&& 14
%% 125929392 3743
%% 125989280 3790
&& 13
%% 126049920 3849
&& 12
%% 126111504 3924
%% 126174288 4009
&& 14
%% 126238432 4080
%% 126303712 4136
&& 7
%% 126369888 4265
&& 10
%% 126438128 4399
%% 126508512 4531
&& 15
%% 126581008 4594
&& 10
%% 126654512 4662
&& 13
%% 126729104 4691
%% 126804160 4690
&& 15
%% 126879200 4646
&& 15
%% 126953536 4576
&& 17
%% 127026752 4477
%% 127098384 4363
&& 14
%% 127168192 4275
&& 13
%% 127236592 4216
%% 127304048 4182
&& 11
%% 127370960 4187
&& 12
%% 127437952 4210
%% 127505312 4243
&& 7
%% 127573200 4354
&& 13
%% 127642864 4434
&& 17
%% 127713808 4449
%% 127784992 4418
&& 21
%% 127855680 4329
&& 17
%% 127924944 4233
%% 127992672 4138
&& 14
%% 128058880 4072
&& 9
%% 128124032 4084
%% 128189376 4151
&& 17
%% 128255792 4177
&& 10
%% 128322624 4238
%% 128390432 4323
&& 10
%% 128459600 4421
&& 10
%% 128530336 4524
%% 128602720 4625
&& 10
%% 128676720 4720
&& 16
%% 128752240 4731
&& 19
%% 128827936 4659
%% 128902480 4535
&& 18
%% 128975040 4394
&& 15
%% 129045344 4275
&& 17
%% 129113744 4163
%% 129180352 4060
&& 23
%% 129245312 3937
%% 129308304 3808
&& 18
%% 129369232 3705
&& 19
%% 129428512 3620
%% 129486432 3550
&& 11
%% 129543232 3546
%% 129599968 3590
&& 17
%% 129657408 3628
&& 16
%% 129715456 3665
%% 129774096 3701
&& 12
%% 129833312 3764
%% 129893536 3844
&& 11
%% 129955040 3946
&& 12
%% 130018176 4050
%% 130082976 4152
&& 14
%% 130149408 4228
&& 13
%% 130217056 4290
%% 130285696 4337
&& 11
%% 130355088 4394
&& 14
%% 130425392 4422
%% 130496144 4428
&& 16
%% 130566992 4399
&& 14
%% 130637376 4366
%% 130707232 4331
&& 17
%% 130776528 4273
&& 15
%% 130844896 4217
&& 22
%% 130912368 4121
%% 130978304 4003
&& 19
%% 131042352 3893
%% 131104640 3794
&& 12
%% 131165344 3755
&& 14
%% 131225424 3745
%% 131285344 3755
&& 15
%% 131345424 3773
%% 131405792 3796
&& 15
%% 131466528 3822
&& 18
%% 131527680 3830
%% 131588960 3825
&& 17
%% 131650160 3816
&& 12
%% 131711216 3841
%% 131772672 3891
&& 11
%% 131834928 3968
%% 131898416 4063
&& 9
%% 131963424 4192
&& 17
%% 132030496 4262
%% 132098688 4283
&& 15
%% 132167216 4284
&& 12
%% 132235760 4298
%% 132304528 4321
&& 19
%% 132373664 4290
&& 12
%% 132442304 4282
&& 12
%% 132510816 4290
%% 132579456 4310
&& 7
%% 132648416 4409
&& 9
%% 132718960 4528
%% 132791408 4657
&& 14
%% 132865920 4718
&& 19
%% 132941408 4682
&& 14
%% 133016320 4624
%% 133090304 4557
&& 14
%% 133163216 4488
&& 13
%% 133235024 4432
%% 133305936 4388
&& 10
%% 133376144 4392
&& 18
%% 133446416 4349
&& 12
%% 133516000 4329
%% 133585264 4327
&& 13
%% 133654496 4326
&& 11
%% 133723712 4350
%% 133793312 4389
&& 14
%% 133863536 4405
&& 13
%% 133934016 4412
%% 134004608 4414
&& 19
%% 134075232 4361
&& 18
%% 134145008 4280
&& 11
%% 134213488 4250
%% 134281488 4255
&& 9
%% 134349568 4312
&& 6
%% 134418560 4458
%% 134489888 4666
&& 7
%% 134564544 4892
&& 11
%% 134642816 5044
&& 13
%% 134723520 5100
%% 134805120 5084
&& 11
%% 134886464 5051
&& 12
%% 134967280 4993
&& 13
%% 135047168 4911
&& 16
%% 135125744 4784
%% 135202288 4640
&& 17
%% 135276528 4486
&& 16
%% 135348304 4344
&& 18
%% 135417808 4205
%% 135485088 4075
&& 17
%% 135550288 3966
&& 14
%% 135613744 3898
%% 135676112 3861
&& 22
%% 135737888 3800
%% 135798688 3727
&& 20
%% 135858320 3657
&& 11
%% 135916832 3650
%% 135975232 3691
&& 12
%% 136034288 3757
%% 136094400 3841
&& 15
%% 136155856 3912
&& 12
%% 136218448 3993
%% 136282336 4080
&& 11
%% 136347616 4178
&& 6
%% 136414464 4357
%% 136484176 4593
&& 8
%% 136557664 4823
&& 16
%% 136634832 4925
&& 30
%% 136713632 4832
%% 136790944 4618
&& 27
%% 136864832 4360
&& 22
%% 136934592 4119
%% 137000496 3905
&& 19
%% 137062976 3735
&& 20
%% 137122736 3598
%% 137180304 3487
&& 20
%% 137236096 3400
%% 137290496 3333
&& 17
%% 137343824 3295
%% 137396544 3280
&& 17
%% 137449024 3283
%% 137501552 3300
&& 25
%% 137554352 3297
%% 137607104 3280
&& 10
%% 137659584 3326
&& 16
%% 137712800 3379
%% 137766864 3438
&& 17
%% 137821872 3493
%% 137877760 3543
&& 13
%% 137934448 3613
%% 137992256 3696
&& 15
%% 138051392 3772
&& 11
%% 138111744 3872
%% 138173696 3988
&& 8
%% 138237504 4150
%% 138303904 4342
&& 10
%% 138373376 4521
&& 3
%% 138445712 4836
&& 6
%% 138523088 5158
%% 138605616 5466
&& 10
%% 138693072 5640
&& 12
%% 138783312 5664
&& 21
%% 138873936 5474
&& 15
%% 138961520 5238
&& 18
%% 139045328 4966
&& 23
%% 139124784 4659
%% 139199328 4360
&& 19
%% 139269088 4112
&& 15
%% 139334880 3938
%% 139397888 3818
&& 12
%% 139458976 3764
&& 9
%% 139519200 3790
%% 139579840 3873
&& 10
%% 139641808 3986
%% 139705584 4119
&& 17
%% 139771488 4198
&& 15
%% 139838656 4245
%% 139906576 4266
&& 16
%% 139974832 4259
&& 17
%% 140042976 4224
&& 24
%% 140110560 4132
%% 140176672 4008
&& 14
%% 140240800 3927
%% 140303632 3880
&& 10
%% 140365712 3897
&& 9
%% 140428064 3972
%% 140491616 4089
&& 9
%% 140557040 4234
&& 13
%% 140624784 4347
%% 140694336 4429
&& 20
%% 140765200 4426
&& 12
%% 140836016 4431
%% 140906912 4441
&& 15
%% 140977968 4423
&& 13
%% 141048736 4405
&& 13
%% 141119216 4390
%% 141189456 4377
&& 21
%% 141259488 4304
&& 15
%% 141328352 4236
%% 141396128 4176
&& 12
%% 141462944 4153
&& 13
%% 141529392 4146
%% 141595728 4151
&& 16
%% 141662144 4139
&& 12
%% 141728368 4151
%% 141794784 4180
&& 14
%% 141861664 4200
&& 17
%% 141928864 4189
%% 141995888 4156
&& 20
%% 142062384 4090
&& 23
%% 142127824 3991
%% 142191680 3875
&& 9
%% 142253680 3854
&& 6
%% 142315344 3947
%% 142378496 4124
&& 15
%% 142444480 4251
&& 11
%% 142512496 4371
%% 142582432 4480
&& 9
%% 142654112 4604
&& 15
%% 142727776 4656
%% 142802272 4651
&& 14
%% 142876688 4619
&& 15
%% 142950592 4559
&& 19
%% 143023536 4452
%% 143094768 4321
&& 17
%% 143163904 4197
&& 12
%% 143231056 4129
%% 143297120 4102
&& 11
%% 143362752 4115
&& 12
%% 143428592 4146
%% 143494928 4189
&& 8
%% 143561952 4290
&& 10
%% 143630592 4402
%% 143701024 4517
&& 8
%% 143773296 4659
&& 15
%% 143847840 4721
&& 13
%% 143923376 4740
%% 143999216 4728
&& 7
%% 144074864 4793
&& 10
%% 144151552 4851
&& 8
%% 144229168 4937
%% 144308160 5038
&& 10
%% 144388768 5105
&& 6
%% 144470448 5231
&& 8
%% 144554144 5341
&& 12
%% 144639600 5353
&& 15
%% 144725248 5257
&& 17
%% 144809360 5079
%% 144890624 4867
&& 16
%% 144968496 4661
&& 18
%% 145043072 4458
&& 17
%% 145114400 4279
%% 145182864 4125
&& 22
%% 145248864 3968
&& 20
%% 145312352 3828
%% 145373600 3706
&& 12
%% 145432896 3653
%% 145491344 3650
&& 14
%% 145549744 3670
%% 145608464 3705
&& 8
%% 145667744 3809
&& 14
%% 145728688 3903
%% 145791136 3987
&& 10
%% 145854928 4097
&& 13
%% 145920480 4191
%% 145987536 4268
&& 16
%% 146055824 4302
&& 15
%% 146124656 4310
%% 146193616 4298
&& 16
%% 146262384 4266
&& 19
%% 146330640 4200
%% 146397840 4114
&& 13
%% 146463664 4065
&& 13
%% 146528704 4044
%% 146593408 4043
&& 9
%% 146658096 4102
&& 8
%% 146723728 4217
%% 146791200 4372
&& 11
%% 146861152 4507
&& 15
%% 146933264 4575
%% 147006464 4589
&& 9
%% 147079888 4638
&& 10
%% 147154096 4695
&& 15
%% 147229216 4692
%% 147304288 4646
&& 9
%% 147378624 4653
&& 11
%% 147453072 4664
&& 19
%% 147527696 4597
%% 147601248 4482
&& 12
%% 147672960 4407
&& 10
%% 147743472 4388
&& 12
%% 147813680 4384
%% 147883824 4389
&& 17
%% 147954048 4355
&& 11
%% 148023728 4354
%% 148093392 4375
&& 10
%% 148163392 4425
&& 16
%% 148234192 4427
%% 148305024 4396
&& 20
%% 148375360 4315
&& 15
%% 148444400 4242
&& 16
%% 148512272 4169
%% 148578976 4101
&& 10
%% 148644592 4098
&& 9
%% 148710160 4153
%% 148776608 4250
&& 5
%% 148844608 4448
&& 1
%% 148915776 4859
%% 148993520 5442
&& 5
%% 149080592 5963
&& 4
%% 149176000 6426
&& 4
%% 149278816 6799
&& 3
%% 149387600 7128
&& 9
%% 149501648 7104
&& 11
&& 19
%% 149615312 6659
&& 24
%% 149721856 6013
&& 26
%% 149818064 5354
%% 149903728 4772
&& 19
%% 149980080 4332
&& 12
%% 150049392 4060
&& 11
%% 150114352 3909
%% 150176896 3842
&& 21
%% 150238368 3766
%% 150298624 3687
&& 14
%% 150357616 3650
&& 21
%% 150416016 3604
%% 150473680 3556
&& 21
%% 150530576 3506
%% 150586672 3459
&& 12
%% 150642016 3464
%% 150697440 3508
&& 8
%% 150753568 3620
&& 10
%% 150811488 3762
%% 150871680 3925
&& 13
%% 150934480 4069
%% 150999584 4191
&& 14
%% 151066640 4280
&& 11
%% 151135120 4370
%% 151205040 4457
&& 13
%% 151276352 4513
&& 12
%% 151348560 4555
&& 16
%% 151421440 4542
%% 151494112 4492
&& 14
%% 151565984 4438
&& 18
%% 151636992 4352
%% 151706624 4249
&& 16
%% 151774608 4156
&& 14
%% 151841104 4091
%% 151906560 4049
&& 10
%% 151971344 4064
&& 13
%% 152036368 4090
%% 152101808 4121
&& 11
%% 152167744 4176
&& 15
%% 152234560 4206
%% 152301856 4218
&& 17
%% 152369344 4199
&& 20
%% 152436528 4141
%% 152502784 4059
&& 23
%% 152567728 3950
&& 21
%% 152630928 3839
%% 152692352 3732
&& 18
%% 152752064 3647
&& 19
%% 152810416 3577
%% 152867648 3521
&& 19
%% 152923984 3476
%% 152979600 3441
&& 19
%% 153034656 3415
%% 153089296 3396
&& 16
%% 153143632 3398
%% 153198000 3416
&& 13
%% 153252656 3464
%% 153308080 3534
&& 8
%% 153364624 3666
&& 8
%% 153423280 3846
%% 153484816 4062
&& 5
%% 153549808 4354
&& 8
%% 153619472 4643
%% 153693760 4911
&& 15
%% 153772336 5043
&& 15
%% 153853024 5060
&& 8
%% 153933984 5107
&& 9
%% 154015696 5149
%% 154098080 5186
&& 5
%% 154181056 5318
&& 7
%% 154266144 5451
&& 7
%% 154353360 5572
&& 7
%% 154442512 5678
&& 14
%% 154533360 5619
&& 15
%% 154623264 5448
&& 12
%% 154710432 5268
%% 154794720 5100
&& 15
%% 154876320 4913
&& 24
%% 154954928 4659
&& 15
%% 155029472 4452
%% 155100704 4287
&& 19
%% 155169296 4129
&& 12
%% 155235360 4040
%% 155300000 4001
&& 16
%% 155364016 3966
&& 11
%% 155427472 3978
%% 155491120 4024
&& 12
%% 155555504 4083
&& 11
%% 155620832 4159
%% 155687376 4246
&& 3
%% 155755312 4491
&& 4
%% 155827168 4826
%% 155904384 5223
&& 2
%% 155987952 5736
&& 3
%% 156079728 6261
&& 4
%% 156179904 6696
&& 8
%% 156287040 6847
&& 11
%% 156396592 6704
&& 8
%% 156503856 6497
&& 9
%% 156607808 6249
&& 13
%% 156707792 5918
&& 10
%% 156802480 5640
&& 11
%% 156892720 5397
&& 15
%% 156979072 5136
&& 21
%% 157061248 4834
&& 25
%% 157138592 4511
&& 21
%% 157210768 4225
%% 157278368 3981
&& 19
%% 157342064 3789
%% 157402688 3638
&& 16
%% 157460896 3538
&& 24
%% 157517504 3441
%% 157572560 3351
&& 15
%% 157626176 3306
%% 157679072 3296
&& 12
%% 157731808 3332
%% 157785120 3401
&& 12
%% 157839536 3497
%% 157895488 3612
&& 9
%% 157953280 3767
&& 5
%% 158013552 4012
%% 158077744 4329
&& 10
%% 158147008 4609
&& 11
%% 158220752 4825
%% 158297952 4974
&& 12
%% 158377536 5049
&& 17
%% 158458320 5006
&& 15
%% 158538416 4908
&& 12
%% 158616944 4818
%% 158694032 4740
&& 14
%% 158769872 4651
&& 11
%% 158844288 4598
&& 15
%% 158917856 4525
%% 158990256 4444
&& 17
%% 159061360 4346
&& 18
%% 159130896 4236
%% 159198672 4124
&& 12
%% 159264656 4066
&& 16
%% 159329712 4015
%% 159393952 3969
&& 21
%% 159457456 3902
&& 14
%% 159519888 3865
%% 159581728 3851
&& 8
%% 159643344 3918
%% 159706032 4043
&& 9
%% 159770720 4196
&& 5
%% 159837856 4438
&& 8
%% 159908864 4681
%% 159983760 4912
&& 1
%% 160062352 5356
&& 11
%% 160148048 5627
&& 15
%% 160238080 5674
&& 13
%% 160328864 5593
&& 20
%% 160418352 5355
%% 160504032 5051
&& 14
%% 160584848 4797
&& 19
%% 160661600 4545
&& 12
%% 160734320 4379
%% 160804384 4275
&& 10
%% 160872784 4241
&& 13
%% 160940640 4222
%% 161008192 4216
&& 10
%% 161075648 4252
&& 19
%% 161143680 4235
&& 21
%% 161211440 4171
%% 161278176 4076
&& 20
%% 161343392 3973
%% 161406960 3869
&& 17
%% 161468864 3787
&& 25
%% 161529456 3687
%% 161588448 3580
&& 15
%% 161645728 3518
%% 161702016 3491
&& 13
%% 161757872 3503
&& 23
%% 161813920 3493
%% 161869808 3469
&& 17
%% 161925312 3459
%% 161980656 3461
&& 18
%% 162036032 3466
%% 162091488 3474
&& 22
%% 162147072 3467
%% 162202544 3449
&& 13
%% 162257728 3469
&& 14
%% 162313232 3510
%% 162369392 3566
&& 15
%% 162426448 3627
%% 162484480 3688
&& 11
%% 162543488 3779
%% 162603952 3891
&& 5
%% 162666208 4102
&& 16
%% 162731840 4250
%% 162799840 4338
&& 12
%% 162869248 4413
&& 19
%% 162939856 4413
&& 14
%% 163010464 4399
%% 163080848 4376
&& 15
%% 163150864 4339
&& 16
%% 163220288 4286
%% 163288864 4225
&& 21
%% 163356464 4130
&& 15
%% 163422544 4056
%% 163487440 4001
&& 21
%% 163551456 3924
&& 13
%% 163614240 3888
%% 163676448 3883
&& 13
%% 163738576 3901
%% 163800992 3934
&& 12
%% 163863936 3987
&& 18
%% 163927728 4006
%% 163991824 3999
&& 18
%% 164055808 3974
&& 13
%% 164119392 3973
%% 164182960 3991
&& 13
%% 164246816 4020
&& 11
%% 164311136 4077
%% 164376368 4153
&& 13
%% 164442816 4218
&& 14
%% 164510304 4263
%% 164578512 4290
&& 17
%% 164647152 4278
&& 17
%% 164715600 4239
%% 164783424 4183
&& 16
%% 164850352 4126
&& 14
%% 164916368 4087
%% 164981760 4064
&& 12
%% 165046784 4070
&& 17
%% 165111904 4057
%% 165176816 4030
&& 14
%% 165241296 4017
%% 165305568 4015
&& 12
%% 165369808 4039
&& 11
%% 165434432 4091
%% 165499888 4163
&& 23
%% 165566496 4158
&& 17
%% 165633024 4130
%% 165699104 4090
&& 19
%% 165764544 4029
&& 23
%% 165829008 3937
%% 165892000 3829
&& 18
%% 165953264 3740
&& 13
%% 166013104 3701
%% 166072320 3699
&& 18
%% 166131504 3693
%% 166190592 3683
&& 16
%% 166249520 3682
&& 9
%% 166308432 3747
%% 166368384 3861
&& 8
%% 166430160 4024
%% 166494544 4221
&& 12
%% 166562080 4386
&& 8
%% 166632256 4572
%% 166705408 4766
&& 15
%% 166781664 4855
&& 12
%% 166859344 4897
&& 14
%% 166937696 4877
&& 17
%% 167015728 4785
%% 167092288 4654
&& 9
%% 167166752 4604
&& 17
%% 167240416 4515
&& 14
%% 167312656 4433
%% 167383584 4362
&& 10
%% 167453376 4347
&& 11
%% 167522928 4360
%% 167592688 4391
&& 9
%% 167662944 4461
&& 6
%% 167734320 4614
%% 167808144 4822
&& 12
%% 167885296 4953
&& 14
%% 167964544 4990
&& 19
%% 168044384 4910
&& 11
%% 168122944 4846
%% 168200480 4797
&& 14
%% 168277232 4724
&& 13
%% 168352816 4651
&& 8
%% 168427232 4656
%% 168501728 4715
&& 10
%% 168577168 4774
&& 9
%% 168653552 4846
&& 5
%% 168731088 5015
&& 9
%% 168811328 5150
%% 168893728 5250
&& 13
%% 168977728 5250
&& 16
%% 169061728 5146
&& 15
%% 169144064 4995
&& 15
%% 169223984 4828
%% 169301232 4664
&& 14
%% 169375856 4524
&& 20
%% 169448240 4359
&& 19
%% 169517984 4196
%% 169585120 4045
&& 23
%% 169649840 3890
&& 31
%% 169712080 3715
%% 169771520 3536
&& 35
%% 169828096 3356
%% 169881792 3186
&& 34
%% 169932768 3030
%% 169981248 2891
&& 30
%% 170027504 2775
%% 170071904 2678
&& 27
%% 170114752 2603
%% 170156400 2546
%% 170197136 2504
&& 20
%% 170237200 2487
%% 170276992 2491
&& 18
%% 170316848 2517
%% 170357120 2561
%% 170398096 2620
&& 23
%% 170440016 2678
%% 170482864 2734
&& 17
%% 170526608 2805
%% 170571488 2886
&& 19
%% 170617664 2968
%% 170665152 3048
&& 21
%% 170713920 3118
%% 170763808 3177
&& 19
%% 170814640 3233
%% 170866368 3284
&& 14
%% 170918912 3354
%% 170972576 3438
&& 13
%% 171027584 3537
%% 171084176 3645
&& 13
%% 171142496 3757
%% 171202608 3868
&& 11
%% 171264496 3993
&& 9
%% 171328384 4147
%% 171394736 4319
&& 11
%% 171463840 4470
&& 9
%% 171535360 4625
&& 17
%% 171609360 4681
%% 171684256 4659
&& 18
%% 171758800 4577
&& 12
%% 171832032 4519
%% 171904336 4481
&& 11
%% 171976032 4470
&& 14
%% 172047552 4445
&& 18
%% 172118672 4378
%% 172188720 4287
&& 20
%% 172257312 4172
&& 14
%% 172324064 4091
%% 172389520 4038
&& 14
%% 172454128 4005
&& 10
%% 172518208 4030
%% 172582688 4094
&& 7
%% 172648192 4231
&& 12
%% 172715888 4348
%% 172785456 4444
&& 7
%% 172856560 4595
&& 6
%% 172930080 4803
%% 173006928 5044
&& 16
%% 173087632 5131
&& 16
%% 173169728 5097
&& 12
%% 173251280 5036
&& 11
%% 173331856 4976
&& 13
%% 173411472 4893
%% 173489760 4801
&& 13
%% 173566576 4710
&& 16
%% 173641936 4595
&& 18
%% 173715456 4455
%% 173786736 4310
&& 15
%% 173855696 4193
&& 18
%% 173922784 4079
%% 173988048 3974
&& 11
%% 174051632 3936
&& 20
%% 174114608 3881
%% 174176704 3816
&& 19
%% 174237760 3752
%% 174297792 3693
&& 17
%% 174356880 3650
&& 15
%% 174415280 3632
%% 174473392 3634
&& 14
%% 174531536 3657
%% 174590048 3695
&& 17
%% 174649168 3724
&& 16
%% 174708752 3751
%% 174768768 3775
&& 14
%% 174829168 3810
%% 174890128 3852
&& 12
%% 174951760 3914
&& 16
%% 175014384 3957
%% 175077696 3984
&& 16
%% 175141440 3997
%% 175205392 4000
&& 14
%% 175269392 4009
&& 16
%% 175333536 4008
%% 175397664 4000
&& 14
%% 175461664 4002
&& 9
%% 175525696 4064
%% 175590720 4168
&& 7
%% 175657408 4332
&& 10
%% 175726720 4490
%% 175798560 4634
&& 10
%% 175872704 4759
&& 11
%% 175948848 4847
&& 16
%% 176026400 4843
%% 176103888 4774
&& 9
%% 176180272 4760
&& 15
%% 176256432 4701
&& 21
%% 176331648 4569
%% 176404752 4400
&& 18
%% 176475152 4239
&& 15
%% 176542976 4115
&& 16
%% 176608816 4015
%% 176673056 3936
&& 10
%% 176736032 3928
%% 176798880 3972
&& 12
%% 176862432 4032
&& 8
%% 176926944 4149
%% 176993328 4308
&& 6
%% 177062256 4530
&& 9
%% 177134736 4736
&& 7
%% 177210512 4956
%% 177289808 5175
&& 17
%% 177372608 5219
&& 25
%% 177456112 5074
&& 18
%% 177537296 4874
&& 24
%% 177615280 4616
%% 177689136 4345
&& 15
%% 177758656 4145
&& 10
%% 177824976 4051
%% 177889792 4030
&& 12
%% 177954272 4041
&& 12
%% 178018928 4072
%% 178084080 4119
&& 8
%% 178149984 4225
&& 12
%% 178217584 4319
%% 178286688 4400
&& 12
%% 178357088 4466
&& 12
%% 178428544 4518
%% 178500832 4556
&& 11
%% 178573728 4595
&& 13
%% 178647248 4608
&& 20
%% 178720976 4539
%% 178793600 4421
&& 14
%% 178864336 4326
&& 11
%% 178933552 4283
%% 179002080 4279
&& 25
%% 179070544 4200
&& 21
%% 179137744 4094
%% 179203248 3976
&& 13
%% 179266864 3910
&& 11
%% 179329424 3901
%% 179391840 3934
&& 17
%% 179454784 3948
&& 10
%% 179517952 4007
%% 179582064 4098
&& 11
%% 179647632 4199
&& 8
%% 179714816 4343
%% 179784304 4514
&& 9
%% 179856528 4683
&& 16
%% 179931456 4752
%% 180007488 4742
&& 15
%% 180083360 4689
&& 19
%% 180158384 4575
&& 8
%% 180231584 4557
%% 180304496 4603
&& 7
%% 180378144 4712
&& 16
%% 180453536 4735
&& 17
%% 180529296 4686
%% 180604272 4591
&& 16
%% 180677728 4482
&& 19
%% 180749440 4348
&& 17
%% 180819008 4220
%% 180886528 4104
&& 15
%% 180952192 4018
&& 8
%% 181016480 4030
%% 181080960 4113
&& 13
%% 181146768 4185
&& 16
%% 181213728 4221
%% 181281264 4227
&& 21
%% 181348896 4179
&& 19
%% 181415760 4107
%% 181481472 4023
&& 18
%% 181545840 3942
&& 22
%% 181608912 3845
%% 181670432 3744
&& 16
%% 181730336 3675
%% 181789136 3631
&& 20
%% 181847232 3586
%% 181904608 3543
&& 8
%% 181961296 3589
&& 12
%% 182018720 3662
%% 182077312 3754
&& 10
%% 182137376 3878
%% 182199424 4022
&& 8
%% 182263776 4205
&& 12
%% 182331056 4360
%% 182400816 4484
&& 24
%% 182472560 4484
&& 25
%% 182544304 4390
&& 22
%% 182614544 4255
%% 182682624 4101
&& 31
%% 182748240 3911
&& 22
%% 182810816 3743
%% 182870704 3596
&& 23
%% 182928240 3467
%% 182983712 3357
&& 23
%% 183037424 3263
%% 183089632 3185
&& 24
%% 183140592 3118
%% 183190480 3061
&& 16
%% 183239456 3041
%% 183288112 3049
&& 19
%% 183336896 3067
%% 183385968 3093
&& 17
%% 183435456 3132
%% 183485568 3181
&& 12
%% 183536464 3264
%% 183588688 3373
&& 6
%% 183642656 3561
%% 183699632 3817
&& 12
%% 183760704 4052
&& 16
%% 183825536 4222
%% 183893088 4330
&& 17
%% 183962368 4374
&& 24
%% 184032352 4326
%% 184101568 4217
&& 25
%% 184169040 4070
&& 24
%% 184234160 3912
%% 184296752 3756
&& 22
%% 184356848 3617
&& 17
%% 184414720 3520
%% 184471040 3456
&& 15
%% 184526336 3428
%% 184581184 3428
&& 12
%% 184636032 3469
%% 184691536 3541
&& 12
%% 184748192 3635
%% 184806352 3745
&& 12
%% 184866272 3863
&& 21
%% 184928080 3924
%% 184990864 3937
&& 14
%% 185053856 3957
&& 11
%% 185117168 4010
%% 185181328 4085
&& 8
%% 185246688 4213
&& 15
%% 185314096 4296
%% 185382832 4340
&& 14
%% 185452272 4363
&& 12
%% 185522080 4389
%% 185592304 4416
&& 10
%% 185662960 4468
&& 9
%% 185734448 4550
%% 185807248 4651
&& 6
%% 185881664 4820
&& 13
%% 185958784 4909
&& 29
%% 186037328 4814
&& 26
%% 186114352 4618
%% 186188240 4376
&& 19
%% 186258256 4162
&& 27
%% 186324848 3942
%% 186387920 3731
&& 21
%% 186447616 3561
%% 186504592 3426
&& 20
%% 186559408 3323
&& 20
%% 186612576 3247
%% 186664528 3192
&& 16
%% 186715600 3171
%% 186766336 3177
&& 16
%% 186817168 3203
%% 186868416 3244
&& 11
%% 186920320 3327
%% 186973552 3442
&& 22
%% 187028624 3522
%% 187084976 3568
&& 10
%% 187142064 3659
%% 187200608 3784
&& 12
%% 187261152 3913
&& 14
%% 187323760 4023
%% 187388128 4111
&& 9
%% 187453904 4235
&& 13
%% 187521664 4331
%% 187590960 4402
&& 9
%% 187661392 4501
&& 17
%% 187733408 4526
%% 187805824 4495
&& 12
%% 187877744 4476
&& 21
%% 187949360 4391
&& 22
%% 188019616 4261
%% 188087792 4111
&& 15
%% 188153568 4001
&& 25
%% 188217584 3869
%% 188279488 3728
&& 18
%% 188339136 3621
%% 188397072 3541
&& 28
%% 188453728 3446
&& 17
%% 188508864 3386
%% 188563040 3352
&& 20
%% 188616672 3325
%% 188669872 3305
&& 17
%% 188722752 3303
%% 188775600 3316
&& 15
%% 188828656 3349
%% 188882240 3398
&& 12
%% 188936608 3477
%% 188992240 3579
&& 15
%% 189049504 3675
&& 12
%% 189108304 3784
%% 189168848 3900
&& 13
%% 189231248 4009
%% 189295392 4107
&& 15
%% 189361104 4173
&& 14
%% 189427872 4222
%% 189495424 4254
&& 15
%% 189563488 4263
&& 12
%% 189631696 4285
%% 189700256 4315
&& 12
%% 189769296 4348
&& 12
%% 189838864 4383
&& 14
%% 189908992 4396
%% 189979328 4392
&& 11
%% 190049600 4410
&& 19
%% 190120160 4368
%% 190190048 4289
&& 17
%% 190258672 4201
&& 10
%% 190325888 4181
%% 190392784 4209
&& 12
%% 190460128 4247
&& 6
%% 190528080 4379
%% 190598144 4580
&& 11
%% 190671424 4737
&& 14
%% 190747216 4812
&& 12
%% 190824208 4847
%% 190901760 4851
&& 16
%% 190979376 4788
&& 12
%% 191055984 4730
&& 15
%% 191131664 4644
%% 191205968 4547
&& 16
%% 191278720 4439
&& 15
%% 191349744 4339
&& 12
%% 191419168 4282
%% 191487680 4256
&& 14
%% 191555776 4232
&& 16
%% 191623488 4195
%% 191690608 4151
&& 16
%% 191757024 4104
&& 15
%% 191822688 4065
%% 191887728 4034
&& 21
%% 191952272 3972
&& 14
%% 192015824 3937
%% 192078816 3922
&& 8
%% 192141568 3987
%% 192205360 4109
&& 17
%% 192271104 4180
&& 15
%% 192337984 4222
%% 192405536 4241
&& 17
%% 192473392 4227
&& 19
%% 192541024 4175
%% 192607824 4102
&& 15
%% 192673456 4044
&& 29
%% 192738160 3931
%% 192801056 3787
&& 30
%% 192861648 3628
&& 19
%% 192919696 3507
%% 192975808 3416
&& 21
%% 193030464 3341
%% 193083920 3281
&& 22
%% 193136416 3230
%% 193188096 3187
&& 18
%% 193239088 3167
%% 193289760 3165
&& 16
%% 193340400 3184
%% 193391344 3221
&& 16
%% 193442880 3271
%% 193495216 3329
&& 14
%% 193548480 3404
%% 193602944 3490
&& 15
%% 193658784 3576
&& 10
%% 193716000 3699
%% 193775184 3848
&& 8
%% 193836752 4038
%% 193901360 4257
&& 7
%% 193969472 4508
&& 9
%% 194041600 4738
&& 10
%% 194117408 4920
%% 194196128 5054
&& 8
%% 194276992 5181
&& 9
%% 194359888 5273
&& 11
%% 194444256 5297
&& 14
%% 194529008 5227
&& 18
%% 194612640 5059
%% 194693584 4845
&& 21
%% 194771104 4600
&& 22
%% 194844704 4350
&& 22
%% 194914304 4114
%% 194980128 3904
&& 18
%% 195042592 3743
%% 195102480 3620
&& 21
%% 195160400 3515
&& 16
%% 195216640 3451
%% 195271856 3417
&& 17
%% 195326528 3402
%% 195380960 3402
&& 13
%% 195435392 3436
%% 195490368 3495
&& 13
%% 195546288 3574
%% 195603472 3665
&& 11
%% 195662112 3780
&& 13
%% 195722592 3892
%% 195784864 3998
&& 11
%% 195848832 4113
&& 15
%% 195914640 4194
%% 195981744 4242
&& 21
%% 196049616 4224
&& 14
%% 196117200 4207
%% 196184512 4194
&& 12
%% 196251616 4202
&& 13
%% 196318848 4216
%% 196386304 4232
&& 18
%% 196454016 4209
&& 20
%% 196521360 4148
%% 196587728 4062
&& 18
%% 196652720 3978
&& 17
%% 196716368 3904
%% 196778832 3842
&& 15
%% 196840304 3804
%% 196901168 3785
&& 17
%% 196961728 3767
&& 12
%% 197022000 3787
%% 197082592 3836
&& 17
%% 197143968 3866
%% 197205824 3881
&& 9
%% 197267920 3954
&& 12
%% 197331184 4037
%% 197395776 4123
&& 16
%% 197461744 4172
&& 14
%% 197528496 4208
%% 197595824 4231
&& 22
%% 197663520 4190
&& 19
%% 197730560 4123
%% 197796528 4041
&& 16
%% 197861184 3973
&& 15
%% 197924752 3926
%% 197987568 3895
&& 20
%% 198049888 3847
&& 19
%% 198111440 3794
%% 198172144 3740
&& 15
%% 198231984 3712
%% 198291376 3703
&& 16
%% 198350624 3702
&& 17
%% 198409856 3702
%% 198469088 3701
&& 16
%% 198528304 3707
%% 198587616 3717
&& 16
%% 198647088 3731
%% 198706784 3745
&& 19
%% 198766704 3743
&& 15
%% 198826592 3753
%% 198886640 3771
&& 13
%% 198946976 3809
%% 199007920 3861
&& 10
%% 199069696 3951
&& 8
%% 199132912 4093
%% 199198400 4273
&& 9
%% 199266768 4459
&& 18
%% 199338112 4544
&& 9
%% 199410816 4648
%% 199485184 4758
&& 14
%% 199561312 4799
&& 20
%% 199638096 4732
&& 20
%% 199713808 4598
%% 199787376 4432
&& 19
%% 199858288 4264
&& 24
%% 199926512 4078
%% 199991760 3893
(Time_stage 1) Exiting @200000000 for #100000000

info: Entering event queue @ 200000000.  Starting simulation...
&& 16
%% 200054048 3761
&& 16
%% 200114224 3670
%% 200172944 3611
&& 11
%% 200230720 3614
%% 200288544 3662
&& 16
%% 200347136 3706
%% 200406432 3745
&& 12
%% 200466352 3808
&& 12
%% 200527280 3888
%% 200589488 3979
&& 11
%% 200653152 4083
&& 14
%% 200718480 4164
%% 200785104 4224
&& 13
%% 200852688 4274
&& 14
%% 200921072 4304
%% 200989936 4318
&& 17
%% 201059024 4295
&& 11
%% 201127744 4304
%% 201196608 4334
&& 14
%% 201265952 4347
&& 15
%% 201335504 4337
%% 201404896 4312
&& 8
%% 201473888 4361
&& 13
%% 201543664 4395
&& 14
%% 201613984 4407
%% 201684496 4402
&& 24
%% 201754928 4316
&& 16
%% 201823984 4231
%% 201891680 4151
&& 20
%% 201958096 4054
&& 18
%% 202022960 3961
%% 202086336 3876
&& 19
%% 202148352 3796
&& 19
%% 202209088 3722
%% 202268640 3657
&& 19
%% 202327152 3600
%% 202384752 3552
&& 14
%% 202441584 3541
%% 202498240 3556
&& 13
%% 202555136 3599
&& 17
%% 202612720 3635
%% 202670880 3666
&& 19
%% 202729536 3680
%% 202788416 3681
&& 19
%% 202847312 3672
%% 202906064 3656
&& 20
%% 202964560 3631
&& 18
%% 203022656 3610
%% 203080416 3592
&& 27
%% 203137888 3544
%% 203194592 3475
&& 19
%% 203250192 3423
%% 203304960 3384
&& 18
%% 203359104 3362
&& 15
%% 203412896 3368
%% 203466784 3395
&& 18
%% 203521104 3422
%% 203575856 3448
&& 21
%% 203631024 3460
%% 203686384 3460
&& 19
%% 203741744 3460
%% 203797104 3459
&& 17
%% 203852448 3468
%% 203907936 3483
&& 19
%% 203963664 3494
&& 11
%% 204019568 3550
%% 204076368 3640
&& 16
%% 204134608 3717
%% 204194080 3782
&& 14
%% 204254592 3847
&& 14
%% 204316144 3911
%% 204378720 3970
&& 9
%% 204442240 4074
%% 204507424 4211
&& 11
%% 204574800 4340
&& 9
%% 204644240 4485
&& 16
%% 204716000 4553
%% 204788848 4560
&& 16
%% 204861808 4522
&& 13
%% 204934160 4485
%% 205005920 4452
&& 23
%% 205077152 4348
&& 12
%% 205146720 4286
&& 11
%% 205215296 4269
%% 205283600 4282
&& 13
%% 205352112 4295
&& 13
%% 205420832 4308
%% 205489760 4318
&& 15
%% 205558848 4309
&& 19
%% 205627792 4256
%% 205695888 4175
&& 10
%% 205762688 4161
&& 16
%% 205829264 4134
%% 205895408 4101
&& 13
%% 205961024 4089
&& 14
%% 206026448 4085
%% 206091808 4085
&& 17
%% 206157168 4067
&& 16
%% 206222240 4043
%% 206286928 4016
&& 11
%% 206351184 4032
&& 13
%% 206415696 4059
%% 206480640 4093
&& 12
%% 206546128 4140
&& 11
%% 206612368 4206
%% 206679664 4283
&& 14
%% 206748192 4332
&& 17
%% 206817504 4333
%% 206886832 4300
&& 15
%% 206955632 4260
&& 22
%% 207023792 4171
%% 207090528 4055
&& 15
%% 207155408 3971
&& 12
%% 207218944 3938
%% 207281952 3942
&& 11
%% 207345024 3983
&& 9
%% 207408752 4074
%% 207473936 4200
&& 9
%% 207541136 4348
&& 18
%% 207610704 4414
%% 207681328 4414
&& 11
%% 207751952 4433
&& 14
%% 207822880 4432
%% 207893792 4416
&& 27
%% 207964448 4308
&& 16
%% 208033376 4208
%% 208100704 4120
&& 16
%% 208166624 4043
&& 14
%% 208231312 3995
%% 208295232 3968
&& 22
%% 208358720 3909
&& 28
%% 208421264 3808
%% 208482192 3683
&& 22
%% 208541120 3570
%% 208598240 3469
&& 25
%% 208653744 3372
%% 208707696 3281
&& 12
%% 208760192 3256
&& 20
%% 208812288 3240
%% 208864128 3230
&& 18
%% 208915808 3234
%% 208967552 3248
&& 21
%% 209019520 3258
%% 209071648 3265
&& 12
%% 209123888 3313
%% 209176896 3394
&& 9
%% 209231200 3524
%% 209287584 3694
&& 21
%% 209346688 3807
%% 209407600 3867
&& 25
%% 209469472 3867
&& 24
%% 209531344 3825
%% 209592544 3755
&& 18
%% 209652624 3697
&& 14
%% 209711776 3673
%% 209770544 3676
&& 10
%% 209829360 3733
%% 209889088 3829
&& 12
%% 209950352 3935
&& 13
%% 210013312 4033
%% 210077840 4121
&& 23
%% 210143776 4131
&& 14
%% 210209872 4141
%% 210276128 4149
&& 15
%% 210342512 4147
&& 11
%% 210408864 4177
%% 210475696 4228
&& 20
%% 210543344 4219
&& 13
%% 210610848 4218
%% 210678336 4225
&& 9
%% 210745936 4284
&& 14
%% 210814480 4320
%% 210883600 4338
&& 10
%% 210953008 4387
&& 21
%% 211023200 4357
%% 211092912 4273
&& 25
%% 211161280 4140
&& 15
%% 211227520 4039
%% 211292144 3966
&& 15
%% 211355600 3915
&& 16
%% 211418240 3875
%% 211480240 3845
&& 19
%% 211541760 3805
%% 211602640 3760
&& 16
%% 211662800 3730
&& 12
%% 211722480 3743
%% 211782368 3787
&& 12
%% 211842960 3853
%% 211904608 3933
&& 9
%% 211967536 4055
&& 13
%% 212032416 4161
%% 212098992 4248
&& 13
%% 212166960 4317
&& 11
%% 212236032 4391
%% 212306288 4464
&& 11
%% 212377712 4534
&& 16
%% 212450256 4543
&& 9
%% 212522944 4591
%% 212596400 4666
&& 15
%% 212671056 4677
&& 21
%% 212745888 4595
&& 21
%% 212819408 4457
%% 212890720 4292
&& 15
%% 212959392 4164
&& 18
%% 213026016 4044
%% 213090720 3936
&& 18
%% 213153696 3842
&& 15
%% 213215168 3782
%% 213275680 3747
&& 21
%% 213335632 3700
%% 213394832 3644
&& 23
%% 213453136 3579
&& 33
%% 213510400 3480
%% 213566080 3364
&& 20
%% 213619904 3277
%% 213672336 3214
&& 13
%% 213723760 3203
%% 213775008 3231
&& 11
%% 213826704 3304
%% 213879568 3412
&& 18
%% 213934160 3503
%% 213990208 3576
&& 20
%% 214047424 3623
%% 214105392 3647
&& 28
%% 214163744 3623
&& 23
%% 214221712 3582
%% 214279024 3529
&& 23
%% 214335488 3470
%% 214391008 3410
&& 19
%% 214445568 3366
%% 214499424 3336
&& 16
%% 214552800 3331
%% 214606096 3345
&& 18
%% 214659616 3364
&& 17
%% 214713440 3390
%% 214767680 3422
&& 18
%% 214822432 3452
%% 214877664 3479
&& 15
%% 214933328 3520
%% 214989648 3569
&& 13
%% 215046752 3637
%% 215104944 3719
&& 15
%% 215164448 3792
&& 12
%% 215225120 3881
%% 215287216 3977
&& 11
%% 215350848 4087
&& 11
%% 215416240 4201
%% 215483456 4315
&& 10
%% 215552496 4435
&& 13
[...]
%% 252118624 3376
%% 252172640 3415
&& 25
%% 252227280 3424
%% 252282064 3411
&& 24
%% 252336640 3383
%% 252390768 3347
&& 22
%% 252444320 3311
%% 252497296 3277
&& 21
%% 252549728 3250
%% 252601728 3228
&& 21
%% 252653376 3211
%% 252704752 3198
&& 12
%% 252755920 3232
&& 18
%% 252807632 3270
%% 252859952 3310
&& 18
%% 252912912 3350
%% 252966512 3389
&& 12
%% 253020736 3461
%% 253076112 3557
&& 12
%% 253133024 3670
%% 253191744 3793
&& 7
%% 253252432 3979
&& 9
%% 253316096 4182
%% 253383008 4391
&& 13
%% 253453264 4543
&& 11
%% 253525952 4666
%% 253600608 4759
&& 20
%% 253676752 4733
&& 14
%% 253752480 4680
&& 15
%% 253827360 4601
%% 253900976 4511
&& 18
%% 253973152 4395
&& 18
%% 254043472 4269
&& 14
%% 254111776 4176
%% 254178592 4110
&& 16
%% 254244352 4050
&& 21
%% 254309152 3967
%% 254372624 3873
&& 25
%% 254434592 3759
%% 254494736 3638
&& 24
%% 254552944 3522
&& 23
%% 254609296 3418
%% 254663984 3327
&& 21
%% 254717216 3256
%% 254769312 3200
&& 18
%% 254820512 3170
%% 254871232 3160
&& 9
%% 254921792 3219
%% 254973296 3332
&& 5
%% 255026608 3539
%% 255083232 3827
&& 3
%% 255144464 4228
&& 9
%% 255212112 4599
%% 255285696 4919
&& 4
%% 255364400 5300
&& 13
%% 255449200 5498
&& 10
%% 255537168 5591
&& 17
%% 255626624 5496
&& 12
%% 255714560 5360
%% 255800320 5210
&& 24
%% 255883680 4947
&& 20
%% 255962832 4669
&& 14
%% 256037536 4457
&& 10
%% 256108848 4345
%% 256178368 4304
&& 16
%% 256247232 4250
&& 7
%% 256315232 4299
%% 256384016 4419
&& 8
%% 256454720 4570
&& 16
%% 256527840 4635
%% 256602000 4633
&& 26
%% 256676128 4519
&& 18
%% 256748432 4385
&& 20
%% 256818592 4235
%% 256886352 4084
&& 14
%% 256951696 3983
&& 2
%% 257015424 4117
%% 257081296 4428
&& 4
%% 257152144 4818
&& 9
%% 257229232 5135
&& 7
%% 257311392 5415
%% 257398032 5643
&& 13
%% 257488320 5687
&& 14
%% 257579312 5587
&& 19
%% 257668704 5348
&& 14
%% 257754272 5108
&& 13
%% 257836000 4900
&& 20
%% 257914400 4661
%% 257988976 4422
&& 10
%% 258059728 4295
&& 18
%% 258128448 4168
%% 258195136 4049
&& 11
%% 258259920 4000
&& 8
%% 258323920 4039
%% 258388544 4141
&& 13
%% 258454800 4227
&& 13
%% 258522432 4296
%% 258591168 4348
&& 15
%% 258660736 4367
&& 6
%% 258730608 4484
%% 258802352 4670
&& 9
%% 258877072 4841
&& 14
%% 258954528 4917
&& 9
%% 259033200 4993
Hello world!
&& 9
%% 259113088 5063
%% 259194096 5125
&& 12
%% 259276096 5125
&& 13
%% 259358096 5069
&& 17
%% 259439200 4936
&& 18
%% 259518176 4756
%% 259594272 4562
&& 17
%% 259667264 4382
&& 17
%% 259737376 4221
%% 259804912 4084
&& 13
%% 259870256 4000
&& 23
%% 259934256 3894
%% 259996560 3779
&& 16
%% 260057024 3699
&& 7
%% 260116208 3732
%% 260175920 3848
&& 9
%% 260237488 4000
%% 260301488 4175
&& 9
%% 260368288 4362
&& 23
%% 260438080 4427
&& 17
%% 260508912 4432
%% 260579824 4395
&& 17
%% 260650144 4330
&& 17
%% 260719424 4250
%% 260787424 4166
&& 14
%% 260854080 4106
&& 15
%% 260919776 4058
%% 260984704 4021
&& 19
%% 261049040 3967
&& 19
%% 261112512 3903
%% 261174960 3836
&& 19
%% 261236336 3771
%% 261296672 3709
&& 23
%% 261356016 3635
&& 23
%% 261414176 3556
%% 261471072 3477
&& 19
%% 261526704 3418
%% 261581392 3374
&& 18
%% 261635376 3348
%% 261688944 3336
&& 15
%% 261742320 3350
%% 261795920 3384
&& 11
%% 261850064 3460
%% 261905424 3567
&& 5
%% 261962496 3772
&& 4
%% 262022848 4079
%% 262088112 4470
&& 6
%% 262159632 4873
&& 5
%% 262237600 5290
&& 4
%% 262322240 5727
&& 10
%% 262413872 5966
&& 15
%% 262509328 5942
%% 262604400 5752
&& 14
%% 262696432 5499
&& 12
%% 262784416 5266
&& 14
%% 262868672 5037
&& 12
%% 262949264 4855
&& 8
%% 263026944 4782
%% 263103456 4783
&& 11
%% 263179984 4782
&& 10
%% 263256496 4795
&& 8
%% 263333216 4853
&& 4
%% 263410864 5043
%% 263491552 5322
&& 8
%% 263576704 5533
&& 12
%% 263665232 5595
&& 10
%% 263754752 5585
&& 19
%% 263844112 5404
&& 14
%% 263930576 5193
&& 28
%% 264013664 4872
%% 264091616 4518
&& 22
%% 264163904 4208
&& 16
%% 264231232 3982
%% 264294944 3820
&& 15
%% 264356064 3712
&& 13
%% 264415456 3661
%% 264474032 3652
&& 7
%% 264532464 3736
%% 264592240 3891
&& 11
%% 264654496 4050
&& 18
%% 264719296 4146
%% 264785632 4188
&& 16
%% 264852640 4201
&& 20
%% 264919856 4165
%% 264986496 4097
&& 22
%% 265052048 4000
&& 20
%% 265116048 3900
%% 265178448 3802
&& 18
%% 265239280 3721
%% 265298816 3656
&& 11
%% 265357312 3653
&& 9
%% 265415760 3717
%% 265475232 3830
&& 9
%% 265536512 3980
%% 265600192 4155
&& 8
%% 265666672 4357
&& 9
%% 265736384 4557
&& 11
%% 265809296 4715
%% 265884736 4830
&& 6
%% 265962016 5003
&& 11
%% 266042064 5107
&& 4
%% 266123776 5323
&& 19
%% 266208944 5328
%% 266294192 5187
&& 14
%% 266377184 5022
&& 9
%% 266457536 4932
&& 18
%% 266536448 4780
&& 14
%% 266612928 4640
%% 266687168 4517
&& 17
%% 266759440 4385
&& 19
%% 266829600 4243
%% 266897488 4103
&& 16
%% 266963136 3992
&& 16
%% 267027008 3907
%% 267089520 3842
&& 10
%% 267150992 3847
&& 10
%% 267212544 3903
%% 267274992 3994
&& 12
%% 267338896 4088
%% 267404304 4181
&& 13
%% 267471200 4257
&& 14
%% 267539312 4308
&& 11
%% 267608240 4369
%% 267678144 4434
&& 14
%% 267749088 4466
&& 16
%% 267820544 4453
%% 267891792 4409
&& 15
%% 267962336 4355
&& 14
%% 268032016 4307
%% 268100928 4266
&& 12
%% 268169184 4251
&& 10
%% 268237200 4281
%% 268305696 4340
&& 5
%% 268375136 4510
&& 7
%% 268447296 4714
&& 11
%% 268522720 4863
%% 268600528 4961
&& 16
%% 268679904 4953
&& 26
%% 268759152 4799
&& 23
%% 268835936 4584
&& 16
%% 268909280 4396
%% 268979616 4239
&& 17
%% 269047440 4102
&& 12
%% 269113072 4028
%% 269177520 4001
&& 19
%% 269241536 3955
%% 269304816 3897
&& 13
%% 269367168 3876
&& 19
%% 269429184 3842
%% 269490656 3799
&& 18
%% 269551440 3758
&& 21
%% 269611568 3704
%% 269670832 3645
&& 15
%% 269729152 3616
%% 269787008 3609
&& 12
%% 269844752 3642
%% 269903024 3704
&& 15
%% 269962288 3763
&& 12
%% 270022496 3841
%% 270083952 3931
&& 13
%% 270146848 4018
&& 15
%% 270211136 4082
%% 270276448 4125
&& 12
%% 270342448 4177
&& 20
%% 270409280 4172
%% 270476032 4125
&& 14
%% 270542032 4094
&& 10
%% 270607536 4116
%% 270673392 4177
&& 7
%% 270740224 4308
&& 6
%% 270809152 4510
%% 270881312 4759
&& 2
%% 270957456 5166
&& 6
%% 271040112 5538
&& 16
%% 271128720 5658
&& 11
%% 271219248 5662
&& 10
%% 271309840 5608
%% 271399568 5524
&& 6
%% 271487952 5529
&& 4
%% 271576416 5662
&& 7
%% 271667008 5768
&& 16
%% 271759296 5670
&& 13
%% 271850016 5498
&& 10
%% 271937984 5350
&& 8
%% 272023584 5271
&& 9
%% 272107920 5220
%% 272191440 5189
&& 4
%% 272274464 5312
&& 16
%% 272359456 5283
&& 6
%% 272443984 5337
&& 7
%% 272529376 5414
&& 9
%% 272616000 5453
%% 272703248 5464
&& 11
%% 272790672 5415
&& 2
%% 272877312 5612
&& 2
%% 272967104 5967
&& 2
%% 273062576 6418
&& 8
%% 273165264 6622
&& 16
%% 273271216 6452
&& 17
%% 273374448 6071
&& 15
%% 273471584 5656
&& 11
%% 273562080 5334
&& 10
%% 273647424 5109
&& 7
%% 273729168 5021
&& 8
%% 273809504 5000
%% 273889504 5024
&& 13
%% 273969888 4993
&& 9
%% 274049776 4991
&& 5
%% 274129632 5105
&& 5
%% 274211312 5293
%% 274296000 5526
&& 4
%% 274384416 5813
&& 10
%% 274477424 5932
&& 2
%% 274572336 6224
&& 11
%% 274671920 6270
&& 2
%% 274772240 6500
&& 5
%% 274876240 6660
&& 7
%% 274982800 6673
&& 3
%% 275089568 6791
&& 5
%% 275198224 6847
&& 11
&& 6
%% 275307776 6813
&& 15
%% 275416784 6481
&& 9
%% 275520480 6166
&& 5
%% 275619136 6030
&& 0
%% 275715616 6315
&& 3
%% 275816656 6632
&& 3
%% 275922768 6942
&& 3
%% 276033840 7215
&& 0
%% 276149280 7712
&& 3
%% 276272672 7998
&& 3
%% 276400640 8114
&& 2
&& 4
%% 276530464 8037
&& 4
%% 276659056 7871
&& 5
%% 276784992 7619
&& 5
%% 276906896 7361
&& 22
&& 18
%% 277024672 6751
&& 12
%% 277132688 6181
&& 17
%% 277231584 5624
&& 17
%% 277321568 5139
%% 277403792 4742
&& 9
%% 277479664 4523
&& 13
%% 277552032 4366
&& 5
%% 277621888 4387
%% 277692080 4528
&& 5
%% 277764528 4755
&& 0
%% 277840608 5252
&& 8
%% 277924640 5637
&& 6
%% 278014832 5952
&& 4
%% 278110064 6267
&& 3
%% 278210336 6609
&& 0
%% 278316080 7182
&& 7
%% 278430992 7380
&& 10
%% 278549072 7197
&& 8
%% 278664224 6898
&& 8
%% 278774592 6580
&& 3
%% 278879872 6517
&& 3
%% 278984144 6602
&& 1
%% 279089776 6917
&& 0
%% 279200448 7457
&& 0
&& 0
%% 279319760 8103
&& 5
%% 279449408 8269
&& 15
%% 279581712 7733
&& 18
%% 279705440 6906
&& 17
&& 15
%% 279815936 6149
&& 10
%% 279914320 5626
%% 280004336 5267
&& 9
%% 280088608 5045
&& 6
%% 280169328 4987
&& 3
%% 280249120 5134
&& 4
%% 280331264 5379
&& 2
%% 280417328 5775
&& 0
%% 280509728 6409
&& 3
%% 280612272 6963
&& 1
%% 280723680 7554
&& 0
%% 280844544 8223
&& 8
%% 280976112 8217
&& 5
&& 1
%% 281107584 8341
&& 0
%% 281241040 8651
&& 2
%% 281379456 8765
&& 3
&& 0
%% 281519696 9019
&& 0
%% 281664000 9309
&& 3
&& 2
%% 281812944 9286
&& 2
%% 281961520 9112
&& 7
&& 6
%% 282107312 8551
&& 3
%% 282244128 8151
&& 2
%% 282374544 7976
&& 5
%% 282502160 7702
&& 0
&& 4
%% 282625392 7484
&& 11
%% 282745136 7020
&& 4
%% 282857456 6784
&& 4
%% 282966000 6691
&& 1
%% 283073056 6895
&& 0
%% 283183376 7368
&& 6
%% 283301264 7512
&& 5
&& 2
%% 283421456 7698
&& 2
%% 283544624 7886
&& 0
%% 283670800 8279
&& 0
%% 283803264 8746
&& 0
&& 4
%% 283943200 8742
&& 4
%% 284083072 8487
&& 7
&& 5
%% 284218864 8084
&& 3
%% 284348208 7825
&& 4
%% 284473408 7598
&& 3
%% 284594976 7488
&& 1
&& 0
%% 284714784 7748
&& 0
%% 284838752 8195
&& 4
%% 284969872 8291
&& 2
%% 285102528 8348
&& 0
&& 3
%% 285236096 8280
&& 2
%% 285368576 8253
&& 4
%% 285500624 8077
&& 7
&& 5
%% 285629856 7786
&& 4
%% 285754432 7547
&& 4
%% 285875184 7368
&& 5
%% 285993072 7182
&& 0
&& 3
%% 286107984 7141
&& 1
%% 286222240 7349
&& 3
%% 286339824 7512
Hello world!
&& 7
%% 286460016 7395
&& 2
%% 286578336 7448
&& 0
%% 286697504 7800
&& 0
&& 0
%% 286822304 8297
&& 8
%% 286955056 8169
&& 7
%% 287085760 7774
&& 3
&& 3
%% 287210144 7559
&& 7
%% 287331088 7228
&& 4
%% 287446736 7038
&& 2
%% 287559344 7083
&& 0
%% 287672672 7451
&& 1
%% 287791888 7874
&& 7
&& 1
%% 287917872 8280
&& 4
Hello world!
%% 288050352 8336
&& 3
%% 288183728 8270
&& 0
&& 3
%% 288316048 8152
&& 3
%% 288446480 8024
&& 0
%% 288574864 8235
&& 4
%% 288706624 8189
&& 1
&& 0
%% 288837648 8426
&& 2
%% 288972464 8538
&& 7
&& 16
%% 289109072 7879
&& 14
%% 289235136 7045
&& 12
%% 289347856 6325
&& 20
%% 289449056 5637
&& 12
%% 289539248 5153
&& 8
%% 289621696 4888
%% 289699904 4762
&& 7
%% 289776096 4749
&& 6
%% 289852080 4835
&& 3
%% 289929440 5082
&& 4
%% 290010752 5400
%% 290097152 5757
&& 2
%% 290189264 6219
&& 1
%% 290288768 6802
&& 5
%% 290397600 7160
&& 4
&& 4
%% 290512160 7372
&& 4
%% 290630112 7465
&& 3
%% 290749552 7546
&& 0
%% 290870288 7907
&& 0
%% 290996800 8398
&& 0
&& 2
%% 291131168 8658
&& 12
%% 291269696 8153
&& 12
%% 291400144 7385
&& 8
&& 6
%% 291518304 6855
&& 13
%% 291627984 6288
&& 9
%% 291728592 5871
&& 7
%% 291822528 5627
&& 4
%% 291912560 5603
%% 292002208 5715
&& 3
%% 292093648 5956
&& 6
%% 292188944 6139
&& 4
%% 292287168 6350
&& 1
%% 292388768 6756
&& 0
%% 292496864 7365
&& 0
&& 3
%% 292614704 7777
&& 2
%% 292739136 8087
&& 3
%% 292868528 8202
&& 0
%% 292999760 8523
&& 1
&& 6
%% 293136128 8347
&& 2
%% 293269680 8256
&& 7
%% 293401776 7862
&& 6
&& 1
%% 293527568 7828
&& 0
%% 293652816 8104
&& 3
%% 293782480 8196
&& 0
&& 4
%% 293913616 8093
&& 3
%% 294043104 7982
&& 6
%% 294170816 7682
&& 5
%% 294293728 7391
&& 4
&& 2
%% 294411984 7352
&& 0
%% 294529616 7658
&& 0
%% 294652144 8141
&& 3
%% 294782400 8347
&& 6
&& 7
%% 294915952 8091
&& 6
%% 295045408 7699
&& 4
%% 295168592 7422
&& 0
%% 295287344 7597
&& 0
&& 0
%% 295408896 8007
&& 0
%% 295537008 8517
&& 0
%% 295673280 9020
&& 8
&& 6
%% 295817600 8827
&& 8
%% 295958832 8210
&& 10
%% 296090192 7444
&& 7
&& 2
%% 296209296 7170
&& 0
%% 296324016 7358
&& 0
%% 296441744 7795
&& 0
%% 296566464 8342
&& 0
%% 296699936 8891
&& 0
Hello world!
&& 0
%% 296842192 9362
&& 4
%% 296991984 9217
&& 1
&& 1
%% 297139456 9126
&& 3
%% 297285472 8842
&& 1
&& 0
%% 297426944 8890
&& 0
%% 297569184 9093
&& 0
&& 7
%% 297714672 8661
&& 11
%% 297853248 7845
&& 8
%% 297978768 7135
&& 6
%% 298092928 6662
&& 8
%% 298199520 6283
&& 4
%% 298300048 6150
&& 1
%% 298398448 6349
&& 0
%% 298500032 6839
&& 0
&& 1
%% 298609456 7397
&& 6
%% 298727808 7591
&& 0
%% 298849264 8012
&& 0
%% 298977456 8528
&& 0
&& 0
%% 299113904 9033
&& 4
%% 299258432 8985
&& 1
%% 299402192 8979
&& 4
&& 6
%% 299545856 8530
&& 4
%% 299682336 8099
&& 1
&& 7
%% 299811920 7568
&& 6
%% 299933008 7124
(Time_stage 2) Exiting @300000000 for #100000000

info: Entering event queue @ 300000000.  Starting simulation...
&& 2
%% 300046992 7029
&& 5
%% 300159456 6933
&& 5
%% 300270384 6848
&& 1
%% 300379952 7050
&& 0
%% 300492752 7513
&& 0
&& 0
%% 300612960 8104
&& 0
%% 300742624 8711
&& 3
%% 300882000 8880
&& 9
&& 10
%% 301024080 8341
&& 6
%% 301157536 7768
&& 4
%% 301281824 7395
&& 4
%% 301400144 7165
&& 8
&& 0
%% 301514784 7377
&& 0
%% 301632816 7826
&& 3
%% 301758032 8065
&& 2
%% 301887072 8233
&& 0
&& 3
%% 302018800 8245
&& 3
%% 302150720 8170
&& 3
%% 302281440 8062
&& 0
&& 0
%% 302410432 8280
&& 0
%% 302542912 8648
&& 9
%% 302681280 8317
&& 6
&& 4
%% 302814352 7978
&& 8
%% 302942000 7468
&& 1
%% 303061488 7408
&& 0
%% 303180016 7700
&& 11
%% 303303216 7476
&& 8
&& 11
%% 303422832 7011
&& 11
%% 303535008 6500
&& 9
%% 303639008 6088
&& 5
%% 303736416 5905
&& 5
%% 303830896 5861
&& 7
%% 303924672 5836
&& 3
%% 304018048 5983
&& 3
%% 304113776 6233
&& 1
%% 304213504 6670
&& 3
%% 304320224 7055
&& 9
%% 304433104 7080
&& 6
%% 304546384 6996
&& 5
%% 304658320 6911
&& 3
%% 304768896 6950
&& 3
%% 304880096 7058
&& 0
%% 304993024 7464
&& 4
&& 8
%% 305112448 7461
&& 4
%% 305231824 7419
&& 4
%% 305350528 7361
&& 1
%% 305468304 7543
&& 0
%% 305588992 7962
&& 7
&& 3
%% 305716384 8161
&& 3
%% 305846960 8201
&& 3
%% 305978176 8149
&& 1
&& 0
%% 306108560 8386
&& 7
%% 306242736 8140
&& 10
%% 306372976 7564
&& 4
%% 306494000 7215
&& 3
&& 9
%% 306609440 6791
&& 4
%% 306718096 6596
&& 1
%% 306823632 6748
&& 0
%% 306931600 7195
&& 0
%% 307046720 7802
&& 3
%% 307171552 8143
&& 3
%% 307301840 8266
&& 9
&& 4
%% 307434096 8167
&& 0
%% 307564768 8379
&& 11
%% 307698832 7953
&& 12
&& 6
%% 307826080 7501
&& 5
%% 307946096 7158
&& 6
%% 308060624 6864
&& 5
%% 308170448 6677
&& 4
%% 308277280 6621
&& 0
%% 308383216 6947
&& 4
%% 308494368 7167
&& 6
&& 0
%% 308609040 7634
&& 4
%% 308731184 7842
&& 3
%% 308856656 7938
&& 1
%% 308983664 8148
&& 6
&& 5
%% 309114032 8050
&& 4
%% 309242832 7870
&& 1
%% 309368752 7942
&& 4
%% 309495824 7871
&& 3
&& 4
%% 309621760 7733
&& 5
%% 309745488 7517
&& 2
%% 309865760 7506
&& 0
%% 309985856 7818
&& 4
&& 2
%% 310110944 8063
&& 3
%% 310239952 8145
&& 4
%% 310370272 8045
&& 1
%% 310498992 8139
&& 0
&& 7
%% 310629216 7867
&& 7
%% 310755088 7454
&& 4
%% 310874352 7198
&& 7
%% 310989520 6899
&& 5
%% 311099904 6707
&& 2
&& 2
%% 311207216 6773
&& 3
%% 311315584 6913
&& 4
%% 311426192 7022
&& 8
%% 311538544 6916
&& 4
%% 311649200 6880
&& 3
%% 311759280 6951
&& 0
%% 311870496 7341
&& 3
%% 311987952 7615
&& 13
&& 12
%% 312109792 7371
&& 9
%% 312227728 6977
&& 6
%% 312339360 6678
&& 8
%% 312446208 6388
&& 8
%% 312548416 6137
&& 4
%% 312646608 6084
&& 8
%% 312743952 6002
&& 1
%% 312839984 6235
&& 3
%% 312939744 6524
&& 2
%% 313044128 6893
&& 0
%% 313154416 7470
&& 0
%% 313273936 8138
&& 6
%% 313404144 8251
&& 5
&& 3
%% 313536160 8230
&& 1
%% 313667840 8344
&& 0
%% 313801344 8649
&& 4
&& 2
%% 313939728 8760
&& 0
%% 314079888 9013
&& 0
&& 3
%% 314224096 8924
&& 3
%% 314366880 8681
&& 0
%% 314505776 8767
&& 4
&& 0
%% 314646048 9006
&& 0
%% 314790144 9291
&& 2
&& 7
%% 314938800 8850
&& 2
%% 315080400 8557
&& 0
&& 0
%% 315217312 8633
&& 3
%% 315355440 8526
&& 0
%% 315491856 8697
&& 4
&& 11
%% 315631008 8169
&& 10
%% 315761712 7452
&& 6
%% 315880944 6936
&& 6
%% 315991920 6581
&& 4
%% 316097216 6439
&& 0
%% 316200240 6720
&& 0
&& 0
%% 316307760 7248
&& 0
%% 316423728 7904
&& 0
%% 316550192 8576
&& 3
%% 316687408 8812
&& 1
&& 0
%% 316828400 9123
&& 3
%% 316974368 9042
&& 3
&& 0
%% 317119040 9160
&& 0
%% 317265600 9360
&& 0
&& 0
%% 317415360 9569
&& 0
%% 317568464 9746
&& 0
&& 3
%% 317724400 9457
&& 2
%% 317875712 9126
&& 0
&& 0
%% 318021728 9116
&& 0
%% 318167584 9258
&& 0
&& 4
%% 318315712 8968
&& 2
%% 318459200 8725
&& 0
%% 318598800 8806
&& 0
&& 0
%% 318739696 9038
&& 0
%% 318884304 9313
&& 0
&& 4
%% 319033312 9078
&& 2
%% 319178560 8842
&& 0
&& 0
%% 319320032 8912
&& 0
%% 319462624 9123
&& 0
&& 4
%% 319608592 8899
&& 1
%% 319750976 8820
&& 0
%% 319892096 8970
&& 0
&& 0
%% 320035616 9213
&& 2
%% 320183024 9186
&& 6
&& 2
%% 320330000 9029
&& 0
%% 320474464 9113
&& 5
&& 2
%% 320620272 9024
&& 0
%% 320764656 9142
&& 0
&& 0
%% 320910928 9343
&& 0
%% 321060416 9556
&& 4
&& 2
%% 321213312 9442
&& 0
%% 321364384 9486
&& 0
&& 0
%% 321516160 9597
&& 0
%% 321669712 9722
&& 0
&& 4
%% 321825264 9313
&& 2
%% 321974272 8956
&& 0
&& 0
%% 322117568 8956
&& 0
%% 322260864 9126
&& 0
&& 4
%% 322406880 8879
&& 2
%% 322548944 8672
&& 0
%% 322687696 8776
&& 0
&& 0
%% 322828112 9023
&& 0
%% 322972480 9310
&& 1
&& 3
%% 323121440 9175
&& 0
%% 323268240 9249
&& 0
&& 0
%% 323416224 9413
&& 0
%% 323566832 9595
&& 0
&& 4
%% 323720352 9245
&& 1
%% 323868272 9055
&& 0
&& 0
%% 324013152 9120
&& 0
%% 324159072 9299
&& 0
&& 4
%% 324307856 9018
&& 1
%% 324452144 8895
&& 0
%% 324594464 9013
&& 0
&& 0
%% 324738672 9234
&& 3
%% 324886416 9083
&& 3
&& 0
%% 325031744 9162
&& 0
%% 325178336 9341
&& 5
&& 2
%% 325327792 9256
&& 0
%% 325475888 9342
&& 0
&& 0
%% 325625360 9497
&& 0
%% 325777312 9660
&& 4
&& 2
%% 325931872 9500
&& 0
%% 326083872 9513
&& 0
&& 0
%% 326236080 9605
&& 0
%% 326389760 9719
&& 3
&& 2
%% 326545264 9522
&& 0
%% 326697616 9515
&& 0
&& 3
%% 326849856 9190
&& 2
%% 326996896 8892
&& 0
&& 0
%% 327139168 8927
&& 0
%% 327282000 9119
&& 0
&& 0
%% 327427904 9362
hack: be nice to actually delete the event here
(Time_stage 3) Exiting @327451000 for #100000000

Bench count: 1, Total bench: 16

info: Entering event queue @ 327451000.  Starting simulation...
(Time_stage 3) Exiting @327475000 for #100000000

Bench count: 2, Total bench: 16

info: Entering event queue @ 327475000.  Starting simulation...
(Time_stage 3) Exiting @327496000 for #100000000

Bench count: 3, Total bench: 16

info: Entering event queue @ 327496000.  Starting simulation...
&& 0
(Time_stage 3) Exiting @327508000 for #100000000

Bench count: 4, Total bench: 16

info: Entering event queue @ 327508000.  Starting simulation...
(Time_stage 3) Exiting @327522000 for #100000000

Bench count: 5, Total bench: 16

info: Entering event queue @ 327522000.  Starting simulation...
(Time_stage 3) Exiting @327536000 for #100000000

Bench count: 6, Total bench: 16

info: Entering event queue @ 327536000.  Starting simulation...
(Time_stage 3) Exiting @327550000 for #100000000

Bench count: 7, Total bench: 16

info: Entering event queue @ 327550000.  Starting simulation...
(Time_stage 3) Exiting @327564000 for #100000000

Bench count: 8, Total bench: 16

info: Entering event queue @ 327564000.  Starting simulation...
%% 327577696 9592
(Time_stage 3) Exiting @327578000 for #100000000

Bench count: 9, Total bench: 16

info: Entering event queue @ 327578000.  Starting simulation...
(Time_stage 3) Exiting @327592000 for #100000000

Bench count: 10, Total bench: 16

info: Entering event queue @ 327592000.  Starting simulation...
(Time_stage 3) Exiting @327606000 for #100000000

Bench count: 11, Total bench: 16

info: Entering event queue @ 327606000.  Starting simulation...
&& 4
(Time_stage 3) Exiting @327620000 for #100000000

Bench count: 12, Total bench: 16

info: Entering event queue @ 327620000.  Starting simulation...
(Time_stage 3) Exiting @327634000 for #100000000

Bench count: 13, Total bench: 16

info: Entering event queue @ 327634000.  Starting simulation...
(Time_stage 3) Exiting @327648000 for #100000000

Bench count: 14, Total bench: 16

info: Entering event queue @ 327648000.  Starting simulation...
(Time_stage 3) Exiting @327662000 for #100000000

Bench count: 15, Total bench: 16

info: Entering event queue @ 327662000.  Starting simulation...
(Time_stage 3) Exiting @327676000 for #100000000

Bench count: 16, Total bench: 16

Exiting @ tick 327676000 because target called exit()
